@<TRIPOS>MOLECULE
*****
 33 38 0 0 0
SMALL
GASTEIGER

@<TRIPOS>ATOM
      1 O          -1.1410    2.5360   -0.2209 O.2     1  UNL1       -0.4548
      2 C          -2.2924    1.8150   -0.0758 C.ar    1  UNL1        0.1369
      3 C          -3.6006    2.3364   -0.0611 C.ar    1  UNL1       -0.0181
      4 C          -4.6947    1.4608    0.0981 C.ar    1  UNL1       -0.0500
      5 C          -4.3302    0.1175    0.2280 C.ar    1  UNL1       -0.0101
      6 C          -5.2659   -0.8786    0.3918 C.ar    1  UNL1       -0.0166
      7 S          -4.5302   -2.4374    0.5251 S.2     1  UNL1       -0.1039
      8 C          -2.9385   -1.7897    0.3636 C.ar    1  UNL1       -0.0159
      9 C          -3.0238   -0.4373    0.2171 C.ar    1  UNL1        0.0005
     10 C          -1.9471    0.4852    0.0537 C.ar    1  UNL1        0.0361
     11 C          -0.5563    0.3370   -0.0075 C.ar    1  UNL1        0.0291
     12 C           0.3919   -0.6963    0.0551 C.ar    1  UNL1       -0.0420
     13 C           1.7642   -0.3490   -0.0604 C.ar    1  UNL1       -0.0064
     14 C           2.8601   -1.2397   -0.0220 C.ar    1  UNL1        0.0276
     15 C           2.8538   -2.6026    0.1308 C.ar    1  UNL1        0.1000
     16 O           4.1383   -3.0767    0.1121 O.2     1  UNL1       -0.4698
     17 C           4.9713   -2.0037   -0.0546 C.ar    1  UNL1        0.0994
     18 C           4.2260   -0.8588   -0.1410 C.ar    1  UNL1        0.0205
     19 C           4.7004    0.4307   -0.3118 C.ar    1  UNL1       -0.0504
     20 C           3.6193    1.3465   -0.3539 C.ar    1  UNL1       -0.0532
     21 C           2.2170    1.0018   -0.2369 C.ar    1  UNL1       -0.0137
     22 C           1.2463    2.0099   -0.2955 C.ar    1  UNL1       -0.0110
     23 C          -0.0998    1.6468   -0.1796 C.ar    1  UNL1        0.1369
     24 H          -3.7591    3.4047   -0.1718 H       1  UNL1        0.0655
     25 H          -5.7162    1.8219    0.1148 H       1  UNL1        0.0625
     26 H          -6.3430   -0.7961    0.4428 H       1  UNL1        0.0699
     27 H          -2.0817   -2.4449    0.3891 H       1  UNL1        0.0700
     28 H           0.0930   -1.7287    0.1874 H       1  UNL1        0.0631
     29 H           2.0884   -3.3545    0.2578 H       1  UNL1        0.1036
     30 H           6.0266   -2.2342   -0.0878 H       1  UNL1        0.1035
     31 H           5.7363    0.7238   -0.4025 H       1  UNL1        0.0625
     32 H           3.8770    2.4002   -0.4862 H       1  UNL1        0.0624
     33 H           1.5107    3.0538   -0.4271 H       1  UNL1        0.0660
@<TRIPOS>BOND
     1     1     2   ar
     2     2     3   ar
     3     3     4   ar
     4     4     5   ar
     5     5     6   ar
     6     6     7   ar
     7     7     8   ar
     8     8     9   ar
     9     9    10   ar
    10    10    11   ar
    11    11    12   ar
    12    12    13   ar
    13    13    14   ar
    14    14    15   ar
    15    15    16   ar
    16    16    17   ar
    17    17    18   ar
    18    18    19   ar
    19    19    20   ar
    20    20    21   ar
    21    21    22   ar
    22    22    23   ar
    23    23     1   ar
    24    10     2   ar
    25    23    11   ar
    26     9     5   ar
    27    21    13   ar
    28    18    14   ar
    29     3    24    1
    30     4    25    1
    31     6    26    1
    32     8    27    1
    33    12    28    1
    34    15    29    1
    35    17    30    1
    36    19    31    1
    37    20    32    1
    38    22    33    1
