@<TRIPOS>MOLECULE
*****
 43 50 0 0 0
SMALL
GASTEIGER

@<TRIPOS>ATOM
      1 SI          1.0486    1.5868   -0.0783 Si      1  UNL1        0.0000
      2 C           2.4100    0.4170    0.4724 C.2     1  UNL1        0.0000
      3 C           1.9494   -0.8139    0.7636 C.2     1  UNL1        0.0000
      4 C           0.5006   -0.9492    0.5714 C.ar    1  UNL1        0.0000
      5 C          -0.2316    0.1941    0.1233 C.ar    1  UNL1        0.0000
      6 C          -1.6524    0.1833   -0.1003 C.ar    1  UNL1        0.0000
      7 C          -2.5332    1.2258   -0.5417 C.ar    1  UNL1        0.0000
      8 C          -2.2212    2.5315   -0.8664 C.ar    1  UNL1        0.0000
      9 N          -3.3842    3.1924   -1.2424 N.ar    1  UNL1        0.0000
     10 C          -4.4599    2.3402   -1.1706 C.ar    1  UNL1        0.0000
     11 C          -3.9285    1.1613   -0.7465 C.ar    1  UNL1        0.0000
     12 C          -4.5971   -0.0572   -0.5021 C.ar    1  UNL1        0.0000
     13 C          -5.9428   -0.3935   -0.6203 C.ar    1  UNL1        0.0000
     14 C          -6.0028   -1.7215   -0.2464 C.ar    1  UNL1        0.0000
     15 N          -4.7313   -2.1452    0.0798 N.ar    1  UNL1        0.0000
     16 C          -3.8222   -1.1138   -0.0730 C.ar    1  UNL1        0.0000
     17 C          -2.4139   -1.0385    0.1305 C.ar    1  UNL1        0.0000
     18 C          -1.6965   -2.1999    0.5787 C.ar    1  UNL1        0.0000
     19 N          -2.2141   -3.4177    0.8445 N.ar    1  UNL1        0.0000
     20 S          -0.9553   -4.3842    1.3235 S.2     1  UNL1        0.0000
     21 N           0.3110   -3.3230    1.2133 N.ar    1  UNL1        0.0000
     22 C          -0.2032   -2.1511    0.8024 C.ar    1  UNL1        0.0000
     23 C           3.7624    0.7999    0.5640 C.ar    1  UNL1        0.0000
     24 S           4.3426    2.1679    1.4725 S.2     1  UNL1        0.0000
     25 C           6.0072    1.8804    1.0665 C.ar    1  UNL1        0.0000
     26 C           6.0493    0.7894    0.2770 C.ar    1  UNL1        0.0000
     27 C           6.9692   -0.0255   -0.4260 C.ar    1  UNL1        0.0000
     28 C           6.2200   -1.0353   -1.0665 C.ar    1  UNL1        0.0000
     29 N           4.8568   -0.9072   -0.8065 N.ar    1  UNL1        0.0000
     30 C           4.8370    0.1965    0.0007 C.ar    1  UNL1        0.0000
     31 H           0.8019    2.6999    0.8745 H       1  UNL1        0.0000
     32 H           1.1868    1.9981   -1.4996 H       1  UNL1        0.0000
     33 H           2.5480   -1.6436    1.1198 H       1  UNL1        0.0000
     34 H          -1.3032    3.0958   -0.8798 H       1  UNL1        0.0000
     35 H          -3.4296    4.1625   -1.5268 H       1  UNL1        0.0000
     36 H          -5.4613    2.6600   -1.4223 H       1  UNL1        0.0000
     37 H          -6.7730    0.2249   -0.9315 H       1  UNL1        0.0000
     38 H          -6.8373   -2.4067   -0.1816 H       1  UNL1        0.0000
     39 H          -4.4742   -3.0746    0.3903 H       1  UNL1        0.0000
     40 H           6.7988    2.5195    1.4291 H       1  UNL1        0.0000
     41 H           8.0441    0.0844   -0.4797 H       1  UNL1        0.0000
     42 H           6.5573   -1.8478   -1.6973 H       1  UNL1        0.0000
     43 H           4.0681   -1.4626   -1.1153 H       1  UNL1        0.0000
@<TRIPOS>BOND
     1     1     2    1
     2     2     3    2
     3     3     4    1
     4     4     5   ar
     5     5     6   ar
     6     6     7   ar
     7     7     8   ar
     8     8     9   ar
     9     9    10   ar
    10    10    11   ar
    11    11    12   ar
    12    12    13   ar
    13    13    14   ar
    14    14    15   ar
    15    15    16   ar
    16    16    17   ar
    17    17    18   ar
    18    18    19   ar
    19    19    20   ar
    20    20    21   ar
    21    21    22   ar
    22     2    23    1
    23    23    24   ar
    24    24    25   ar
    25    25    26   ar
    26    26    27   ar
    27    27    28   ar
    28    28    29   ar
    29    29    30   ar
    30     5     1    1
    31    17     6   ar
    32    22    18   ar
    33    30    23   ar
    34    22     4   ar
    35    30    26   ar
    36    11     7   ar
    37    16    12   ar
    38     1    31    1
    39     1    32    1
    40     3    33    1
    41     8    34    1
    42     9    35    1
    43    10    36    1
    44    13    37    1
    45    14    38    1
    46    15    39    1
    47    25    40    1
    48    27    41    1
    49    28    42    1
    50    29    43    1
