@<TRIPOS>MOLECULE
*****
 44 51 0 0 0
SMALL
GASTEIGER

@<TRIPOS>ATOM
      1 SI          1.7823    1.2578    3.7949 Si      1  UNL1        0.0000
      2 C           2.8079    1.0725    2.2634 C.2     1  UNL1        0.0000
      3 C           2.0597    0.7510    1.1864 C.ar    1  UNL1        0.0000
      4 C           2.6042    0.5387   -0.1594 C.ar    1  UNL1        0.0000
      5 C           1.7361    0.2469   -1.1502 C.ar    1  UNL1        0.0000
      6 C           0.2832    0.1270   -0.9433 C.ar    1  UNL1        0.0000
      7 N          -0.3961   -0.1680   -2.0672 N.ar    1  UNL1        0.0000
      8 C          -1.7321   -0.3112   -2.0062 C.ar    1  UNL1        0.0000
      9 C          -2.4431   -0.1645   -0.8062 C.ar    1  UNL1        0.0000
     10 C          -1.7136    0.1465    0.3641 C.ar    1  UNL1        0.0000
     11 S          -2.7943    0.2773    1.7189 S.2     1  UNL1        0.0000
     12 C          -4.2028   -0.0607    0.8146 C.ar    1  UNL1        0.0000
     13 C          -5.5512   -0.1277    1.2896 C.ar    1  UNL1        0.0000
     14 C          -6.6346   -0.4176    0.4394 C.ar    1  UNL1        0.0000
     15 C          -6.2133   -0.6183   -0.8621 C.ar    1  UNL1        0.0000
     16 C          -7.0329   -0.9189   -1.9223 C.ar    1  UNL1        0.0000
     17 O          -6.2891   -1.0523   -3.0662 O.2     1  UNL1        0.0000
     18 C          -4.9746   -0.8338   -2.7328 C.ar    1  UNL1        0.0000
     19 C          -4.9160   -0.5692   -1.3983 C.ar    1  UNL1        0.0000
     20 C          -3.8307   -0.2692   -0.5012 C.ar    1  UNL1        0.0000
     21 C          -0.3047    0.3046    0.3197 C.ar    1  UNL1        0.0000
     22 C           0.5931    0.6354    1.4583 C.ar    1  UNL1        0.0000
     23 C           0.2794    0.8656    2.7516 C.2     1  UNL1        0.0000
     24 C           3.9806    0.6041   -0.5106 C.ar    1  UNL1        0.0000
     25 S           4.6986    1.8252   -1.5177 S.2     1  UNL1        0.0000
     26 C           6.2999    1.1515   -1.3815 C.ar    1  UNL1        0.0000
     27 C           6.2184    0.0594   -0.5927 C.ar    1  UNL1        0.0000
     28 C           7.0340   -0.9468   -0.0526 C.ar    1  UNL1        0.0000
     29 C           6.1658   -1.7501    0.6984 C.ar    1  UNL1        0.0000
     30 O           4.8472   -1.3332    0.6807 O.2     1  UNL1        0.0000
     31 C           4.9624   -0.2361   -0.1199 C.ar    1  UNL1        0.0000
     32 H           1.7590    2.6488    4.3073 H       1  UNL1        0.0000
     33 H           2.0530    0.2078    4.8060 H       1  UNL1        0.0000
     34 H           3.8772    1.2101    2.2980 H       1  UNL1        0.0000
     35 H           2.0695    0.0685   -2.1689 H       1  UNL1        0.0000
     36 H          -2.2000   -0.5477   -2.9530 H       1  UNL1        0.0000
     37 H          -5.7471    0.0518    2.3461 H       1  UNL1        0.0000
     38 H          -7.6576   -0.4711    0.7866 H       1  UNL1        0.0000
     39 H          -8.0967   -1.0676   -2.0442 H       1  UNL1        0.0000
     40 H          -4.2818   -0.9120   -3.5560 H       1  UNL1        0.0000
     41 H          -0.6756    0.8591    3.2418 H       1  UNL1        0.0000
     42 H           7.1453    1.6040   -1.8794 H       1  UNL1        0.0000
     43 H           8.0972   -1.0976   -0.1708 H       1  UNL1        0.0000
     44 H           6.3335   -2.6399    1.2913 H       1  UNL1        0.0000
@<TRIPOS>BOND
     1     1     2    1
     2     2     3    2
     3     3     4   ar
     4     4     5   ar
     5     5     6   ar
     6     6     7   ar
     7     7     8   ar
     8     8     9   ar
     9     9    10   ar
    10    10    11   ar
    11    11    12   ar
    12    12    13   ar
    13    13    14   ar
    14    14    15   ar
    15    15    16   ar
    16    16    17   ar
    17    17    18   ar
    18    18    19   ar
    19    19    20   ar
    20    10    21   ar
    21    21    22   ar
    22    22    23    2
    23     4    24    1
    24    24    25   ar
    25    25    26   ar
    26    26    27   ar
    27    27    28   ar
    28    28    29   ar
    29    29    30   ar
    30    30    31   ar
    31    23     1    1
    32    31    24   ar
    33    22     3   ar
    34    31    27   ar
    35    21     6   ar
    36    20     9   ar
    37    20    12   ar
    38    19    15   ar
    39     1    32    1
    40     1    33    1
    41     2    34    1
    42     5    35    1
    43     8    36    1
    44    13    37    1
    45    14    38    1
    46    16    39    1
    47    18    40    1
    48    23    41    1
    49    26    42    1
    50    28    43    1
    51    29    44    1
