@<TRIPOS>MOLECULE
*****
 43 49 0 0 0
SMALL
GASTEIGER

@<TRIPOS>ATOM
      1 C          -4.6133   -0.6605   -2.3769 C.3     1  UNL1       -0.0148
      2 C          -5.6924   -0.4497   -1.3535 C.2     1  UNL1       -0.0725
      3 C          -5.1520    0.0851   -0.2512 C.ar    1  UNL1       -0.0212
      4 C          -5.7852    0.4944    0.9755 C.ar    1  UNL1       -0.0543
      5 C          -5.0067    1.0424    1.9282 C.ar    1  UNL1       -0.0606
      6 C          -3.5601    1.2094    1.7520 C.ar    1  UNL1       -0.0537
      7 C          -2.8924    0.8388    0.6283 C.ar    1  UNL1       -0.0141
      8 C          -1.4527    0.9975    0.5765 C.2     1  UNL1       -0.0333
      9 C          -0.7734    2.1496    0.7183 C.2     1  UNL1       -0.0320
     10 C           0.6393    1.8341    0.6292 C.ar    1  UNL1        0.0682
     11 N           1.6069    2.7558    0.7310 N.ar    1  UNL1       -0.2545
     12 C           2.8671    2.2675    0.6265 C.ar    1  UNL1        0.0395
     13 C           3.1771    0.9106    0.4290 C.ar    1  UNL1        0.0440
     14 C           4.5296    0.4989    0.3323 C.ar    1  UNL1        0.1445
     15 O           5.6541    1.2833    0.4082 O.2     1  UNL1       -0.4622
     16 C           6.7328    0.4551    0.2617 C.ar    1  UNL1        0.0932
     17 C           6.3415   -0.8585    0.0908 C.ar    1  UNL1       -0.0155
     18 C           4.9517   -0.7970    0.1401 C.ar    1  UNL1        0.0290
     19 C           3.9528   -1.7994    0.0305 C.ar    1  UNL1        0.0005
     20 C           4.1940   -3.1273   -0.1605 C.ar    1  UNL1       -0.0159
     21 S           2.6861   -3.9522   -0.2299 S.2     1  UNL1       -0.1038
     22 C           1.7864   -2.4910   -0.0002 C.ar    1  UNL1       -0.0160
     23 C           2.5952   -1.3815    0.1283 C.ar    1  UNL1       -0.0020
     24 C           2.1180   -0.0442    0.3273 C.ar    1  UNL1        0.0008
     25 C           0.8156    0.4649    0.4348 C.ar    1  UNL1       -0.0092
     26 C          -0.5286   -0.1902    0.3806 C.3     1  UNL1        0.0008
     27 C          -3.7120    0.2561   -0.4345 C.ar    1  UNL1       -0.0144
     28 C          -3.3849   -0.1580   -1.6690 C.2     1  UNL1       -0.0720
     29 H          -4.5140   -1.7192   -2.6337 H       1  UNL1        0.0350
     30 H          -4.8107   -0.0777   -3.2815 H       1  UNL1        0.0350
     31 H          -6.7353   -0.6796   -1.5061 H       1  UNL1        0.0581
     32 H          -6.8531    0.3699    1.1057 H       1  UNL1        0.0624
     33 H          -5.4351    1.3742    2.8690 H       1  UNL1        0.0618
     34 H          -3.0314    1.6377    2.6004 H       1  UNL1        0.0624
     35 H          -1.1559    3.1439    0.8744 H       1  UNL1        0.0642
     36 H           3.6507    3.0176    0.7081 H       1  UNL1        0.0837
     37 H           7.6956    0.9463    0.3017 H       1  UNL1        0.1030
     38 H           6.9923   -1.7093   -0.0462 H       1  UNL1        0.0655
     39 H           5.1279   -3.6620   -0.2621 H       1  UNL1        0.0700
     40 H           0.7105   -2.5682    0.0228 H       1  UNL1        0.0700
     41 H          -0.6478   -0.9106    1.1960 H       1  UNL1        0.0362
     42 H          -0.6837   -0.6684   -0.5896 H       1  UNL1        0.0362
     43 H          -2.4047   -0.1285   -2.1174 H       1  UNL1        0.0581
@<TRIPOS>BOND
     1     1     2    1
     2     2     3    2
     3     3     4   ar
     4     4     5   ar
     5     5     6   ar
     6     6     7   ar
     7     7     8    1
     8     8     9    2
     9     9    10    1
    10    10    11   ar
    11    11    12   ar
    12    12    13   ar
    13    13    14   ar
    14    14    15   ar
    15    15    16   ar
    16    16    17   ar
    17    17    18   ar
    18    18    19   ar
    19    19    20   ar
    20    20    21   ar
    21    21    22   ar
    22    22    23   ar
    23    23    24   ar
    24    24    25   ar
    25    25    26    1
    26     7    27   ar
    27    27    28    2
    28    28     1    1
    29    27     3   ar
    30    26     8    1
    31    25    10   ar
    32    24    13   ar
    33    18    14   ar
    34    23    19   ar
    35     1    29    1
    36     1    30    1
    37     2    31    1
    38     4    32    1
    39     5    33    1
    40     6    34    1
    41     9    35    1
    42    12    36    1
    43    16    37    1
    44    17    38    1
    45    20    39    1
    46    22    40    1
    47    26    41    1
    48    26    42    1
    49    28    43    1
