@<TRIPOS>MOLECULE
*****
 41 47 0 0 0
SMALL
GASTEIGER

@<TRIPOS>ATOM
      1 C          -4.9089    2.6968    0.8542 C.3     1  UNL1       -0.0148
      2 C          -5.9954    1.7392    0.4548 C.2     1  UNL1       -0.0725
      3 C          -5.4385    0.6049    0.0118 C.ar    1  UNL1       -0.0212
      4 C          -6.0643   -0.5890   -0.4935 C.ar    1  UNL1       -0.0543
      5 C          -5.2615   -1.5915   -0.8991 C.ar    1  UNL1       -0.0606
      6 C          -3.7988   -1.4968   -0.8302 C.ar    1  UNL1       -0.0537
      7 C          -3.1377   -0.4109   -0.3520 C.ar    1  UNL1       -0.0140
      8 C          -1.6878   -0.4128   -0.3171 C.2     1  UNL1       -0.0317
      9 C          -0.9106   -0.1187    0.7600 C.2     1  UNL1       -0.0149
     10 C           0.4267   -0.2310    0.3270 C.ar    1  UNL1        0.1334
     11 O           1.6476   -0.0715    0.8856 O.2     1  UNL1       -0.4539
     12 C           2.5180   -0.3470   -0.1446 C.ar    1  UNL1        0.1513
     13 C           1.8520   -0.6656   -1.3014 C.ar    1  UNL1        0.0626
     14 S           2.9546   -1.0149   -2.6066 S.2     1  UNL1       -0.0846
     15 C           4.3344   -0.7253   -1.5734 C.ar    1  UNL1        0.0242
     16 C           5.7303   -0.7973   -1.8685 C.ar    1  UNL1       -0.0466
     17 C           6.7166   -0.5234   -0.8843 C.ar    1  UNL1       -0.0499
     18 C           6.1667   -0.1907    0.3505 C.ar    1  UNL1        0.0206
     19 C           6.8528    0.1258    1.4980 C.ar    1  UNL1        0.0994
     20 O           5.9691    0.3982    2.5182 O.2     1  UNL1       -0.4698
     21 C           4.6961    0.2541    2.0173 C.ar    1  UNL1        0.1001
     22 C           4.8157   -0.1003    0.7122 C.ar    1  UNL1        0.0316
     23 C           3.8893   -0.3845   -0.3115 C.ar    1  UNL1        0.0428
     24 C           0.4958   -0.5887   -0.9906 C.ar    1  UNL1        0.0165
     25 C          -0.8368   -0.7558   -1.5723 C.3     1  UNL1        0.0029
     26 C          -3.9823    0.7036    0.0837 C.ar    1  UNL1       -0.0144
     27 C          -3.6575    1.9155    0.5619 C.2     1  UNL1       -0.0720
     28 H          -4.9762    2.9487    1.9166 H       1  UNL1        0.0350
     29 H          -4.9502    3.6107    0.2543 H       1  UNL1        0.0350
     30 H          -7.0514    1.9518    0.5132 H       1  UNL1        0.0581
     31 H          -7.1439   -0.6595   -0.5423 H       1  UNL1        0.0624
     32 H          -5.6836   -2.5130   -1.2884 H       1  UNL1        0.0618
     33 H          -3.2624   -2.3791   -1.1693 H       1  UNL1        0.0624
     34 H          -1.2263    0.1499    1.7559 H       1  UNL1        0.0657
     35 H           6.0471   -1.0690   -2.8740 H       1  UNL1        0.0629
     36 H           7.7770   -0.5745   -1.0954 H       1  UNL1        0.0625
     37 H           7.8974    0.2045    1.7640 H       1  UNL1        0.1035
     38 H           3.8854    0.4370    2.7078 H       1  UNL1        0.1036
     39 H          -1.0291   -0.0451   -2.3812 H       1  UNL1        0.0363
     40 H          -1.0091   -1.7820   -1.9084 H       1  UNL1        0.0363
     41 H          -2.6604    2.2971    0.7165 H       1  UNL1        0.0581
@<TRIPOS>BOND
     1     1     2    1
     2     2     3    2
     3     3     4   ar
     4     4     5   ar
     5     5     6   ar
     6     6     7   ar
     7     7     8    1
     8     8     9    2
     9     9    10    1
    10    10    11   ar
    11    11    12   ar
    12    12    13   ar
    13    13    14   ar
    14    14    15   ar
    15    15    16   ar
    16    16    17   ar
    17    17    18   ar
    18    18    19   ar
    19    19    20   ar
    20    20    21   ar
    21    21    22   ar
    22    22    23   ar
    23    13    24   ar
    24    24    25    1
    25     7    26   ar
    26    26    27    2
    27    27     1    1
    28    26     3   ar
    29    25     8    1
    30    24    10   ar
    31    23    12   ar
    32    23    15   ar
    33    22    18   ar
    34     1    28    1
    35     1    29    1
    36     2    30    1
    37     4    31    1
    38     5    32    1
    39     6    33    1
    40     9    34    1
    41    16    35    1
    42    17    36    1
    43    19    37    1
    44    21    38    1
    45    25    39    1
    46    25    40    1
    47    27    41    1
