@<TRIPOS>MOLECULE
*****
 43 49 0 0 0
SMALL
GASTEIGER

@<TRIPOS>ATOM
      1 C          -5.5530    1.8310    1.4646 C.3     1  UNL1       -0.0148
      2 C          -6.4779    0.9500    0.6737 C.2     1  UNL1       -0.0725
      3 C          -5.7519    0.0674   -0.0243 C.ar    1  UNL1       -0.0212
      4 C          -6.1832   -0.9614   -0.9341 C.ar    1  UNL1       -0.0543
      5 C          -5.2331   -1.7083   -1.5286 C.ar    1  UNL1       -0.0606
      6 C          -3.8035   -1.5050   -1.2679 C.ar    1  UNL1       -0.0537
      7 C          -3.3219   -0.5661   -0.4126 C.ar    1  UNL1       -0.0141
      8 C          -1.8910   -0.4445   -0.2140 C.2     1  UNL1       -0.0342
      9 C          -1.2434   -0.4404    0.9772 C.2     1  UNL1       -0.0436
     10 C           0.1263   -0.2835    0.6882 C.ar    1  UNL1        0.0172
     11 S           1.4935   -0.1873    1.6269 S.2     1  UNL1       -0.0878
     12 C           2.5300   -0.0057    0.2236 C.ar    1  UNL1        0.0314
     13 C           1.7526   -0.0264   -0.9573 C.ar    1  UNL1        0.0120
     14 C           2.3989    0.1061   -2.1893 C.ar    1  UNL1        0.0368
     15 N           3.7371    0.2514   -2.2766 N.ar    1  UNL1       -0.2543
     16 C           4.4916    0.2738   -1.1783 C.ar    1  UNL1        0.0727
     17 C           5.8828    0.4313   -1.3861 C.ar    1  UNL1       -0.0351
     18 C           6.8724    0.4834   -0.3804 C.ar    1  UNL1       -0.0515
     19 C           6.3170    0.3590    0.8865 C.ar    1  UNL1       -0.0101
     20 C           7.0985    0.3827    2.0146 C.ar    1  UNL1       -0.0166
     21 S           6.1465    0.2087    3.4271 S.2     1  UNL1       -0.1039
     22 C           4.6897    0.1024    2.5149 C.ar    1  UNL1       -0.0159
     23 C           4.9036    0.1958    1.1585 C.ar    1  UNL1       -0.0006
     24 C           3.9303    0.1466    0.1314 C.ar    1  UNL1        0.0229
     25 C           0.3790   -0.1880   -0.6498 C.ar    1  UNL1       -0.0197
     26 C          -0.9095   -0.2873   -1.3933 C.3     1  UNL1       -0.0001
     27 C          -4.3295    0.2730    0.2398 C.ar    1  UNL1       -0.0144
     28 C          -4.1956    1.2993    1.0951 C.2     1  UNL1       -0.0720
     29 H          -5.6584    2.8786    1.1676 H       1  UNL1        0.0350
     30 H          -5.7356    1.7311    2.5385 H       1  UNL1        0.0350
     31 H          -7.5533    1.0352    0.6727 H       1  UNL1        0.0581
     32 H          -7.2386   -1.1128   -1.1247 H       1  UNL1        0.0624
     33 H          -5.5060   -2.4971   -2.2231 H       1  UNL1        0.0618
     34 H          -3.1367   -2.1836   -1.7932 H       1  UNL1        0.0624
     35 H          -1.6769   -0.5369    1.9617 H       1  UNL1        0.0632
     36 H           1.8628    0.0994   -3.1328 H       1  UNL1        0.0836
     37 H           6.2190    0.5206   -2.4213 H       1  UNL1        0.0639
     38 H           7.9242    0.6059   -0.6021 H       1  UNL1        0.0624
     39 H           8.1715    0.4916    2.0959 H       1  UNL1        0.0699
     40 H           3.7767   -0.0232    3.0727 H       1  UNL1        0.0700
     41 H          -1.1173    0.6247   -1.9612 H       1  UNL1        0.0362
     42 H          -0.9194   -1.1618   -2.0505 H       1  UNL1        0.0362
     43 H          -3.2685    1.7038    1.4700 H       1  UNL1        0.0581
@<TRIPOS>BOND
     1     1     2    1
     2     2     3    2
     3     3     4   ar
     4     4     5   ar
     5     5     6   ar
     6     6     7   ar
     7     7     8    1
     8     8     9    2
     9     9    10    1
    10    10    11   ar
    11    11    12   ar
    12    12    13   ar
    13    13    14   ar
    14    14    15   ar
    15    15    16   ar
    16    16    17   ar
    17    17    18   ar
    18    18    19   ar
    19    19    20   ar
    20    20    21   ar
    21    21    22   ar
    22    22    23   ar
    23    23    24   ar
    24    13    25   ar
    25    25    26    1
    26     7    27   ar
    27    27    28    2
    28    28     1    1
    29    27     3   ar
    30    26     8    1
    31    25    10   ar
    32    24    12   ar
    33    24    16   ar
    34    23    19   ar
    35     1    29    1
    36     1    30    1
    37     2    31    1
    38     4    32    1
    39     5    33    1
    40     6    34    1
    41     9    35    1
    42    14    36    1
    43    17    37    1
    44    18    38    1
    45    20    39    1
    46    22    40    1
    47    26    41    1
    48    26    42    1
    49    28    43    1
