@<TRIPOS>MOLECULE
*****
 47 53 0 0 0
SMALL
GASTEIGER

@<TRIPOS>ATOM
      1 C           5.6124    2.0759   -1.6001 C.3     1  UNL1       -0.0148
      2 C           6.6356    1.3425   -0.7808 C.2     1  UNL1       -0.0725
      3 C           6.0195    0.4114   -0.0414 C.ar    1  UNL1       -0.0212
      4 C           6.5778   -0.5550    0.8697 C.ar    1  UNL1       -0.0543
      5 C           5.7310   -1.4132    1.4710 C.ar    1  UNL1       -0.0606
      6 C           4.2840   -1.3744    1.2340 C.ar    1  UNL1       -0.0520
      7 C           3.6901   -0.4797    0.4029 C.ar    1  UNL1        0.0078
      8 C           2.2175   -0.5151    0.2736 C.ar    1  UNL1        0.0735
      9 C           1.4665    0.6379    0.4648 C.ar    1  UNL1       -0.0117
     10 C           0.0845    0.4935    0.3374 C.ar    1  UNL1        0.0510
     11 N          -0.9066    1.4268    0.4661 N.ar    1  UNL1       -0.3535
     12 C          -2.1498    0.8727    0.2583 C.ar    1  UNL1        0.0574
     13 C          -1.9604   -0.4860   -0.0162 C.ar    1  UNL1        0.0172
     14 C          -0.5283   -0.7222    0.0421 C.ar    1  UNL1        0.0261
     15 C           0.3146   -1.8320   -0.1187 C.ar    1  UNL1        0.0380
     16 N           1.6622   -1.7192    0.0048 N.ar    1  UNL1       -0.2542
     17 C          -3.1277   -1.2853   -0.2725 C.ar    1  UNL1       -0.0075
     18 C          -3.0049   -2.6651   -0.5618 C.ar    1  UNL1       -0.0534
     19 C          -4.1188   -3.4642   -0.8130 C.ar    1  UNL1       -0.0611
     20 C          -5.3831   -2.9047   -0.7820 C.ar    1  UNL1       -0.0611
     21 C          -5.5321   -1.5454   -0.5008 C.ar    1  UNL1       -0.0534
     22 C          -4.4279   -0.6943   -0.2396 C.ar    1  UNL1       -0.0094
     23 C          -4.5751    0.6992    0.0471 C.ar    1  UNL1       -0.0053
     24 C          -5.8105    1.3872    0.1049 C.ar    1  UNL1       -0.0352
     25 C          -5.8498    2.7464    0.3911 C.ar    1  UNL1        0.0282
     26 N          -4.7592    3.4948    0.6284 N.ar    1  UNL1       -0.2626
     27 C          -3.5764    2.8484    0.5759 C.ar    1  UNL1        0.0373
     28 C          -3.4285    1.4794    0.2953 C.ar    1  UNL1        0.0247
     29 C           4.5787    0.4533   -0.2870 C.ar    1  UNL1       -0.0126
     30 C           4.3263    1.4074   -1.1975 C.2     1  UNL1       -0.0719
     31 H           5.5968    3.1408   -1.3506 H       1  UNL1        0.0350
     32 H           5.8019    1.9498   -2.6702 H       1  UNL1        0.0350
     33 H           7.6968    1.5344   -0.8100 H       1  UNL1        0.0581
     34 H           7.6464   -0.5855    1.0435 H       1  UNL1        0.0624
     35 H           6.1014   -2.1673    2.1585 H       1  UNL1        0.0618
     36 H           3.6911   -2.1081    1.7756 H       1  UNL1        0.0624
     37 H           1.9262    1.5876    0.7094 H       1  UNL1        0.0660
     38 H          -0.7382    2.3975    0.6855 H       1  UNL1        0.1659
     39 H          -0.0294   -2.8322   -0.3425 H       1  UNL1        0.0836
     40 H          -2.0406   -3.1525   -0.6011 H       1  UNL1        0.0624
     41 H          -3.9930   -4.5212   -1.0325 H       1  UNL1        0.0618
     42 H          -6.2580   -3.5196   -0.9766 H       1  UNL1        0.0618
     43 H          -6.5488   -1.1632   -0.4914 H       1  UNL1        0.0624
     44 H          -6.7556    0.8866   -0.0693 H       1  UNL1        0.0639
     45 H          -6.7963    3.2781    0.4364 H       1  UNL1        0.0830
     46 H          -2.7247    3.4909    0.7741 H       1  UNL1        0.0836
     47 H           3.3625    1.6629   -1.6089 H       1  UNL1        0.0581
@<TRIPOS>BOND
     1     1     2    1
     2     2     3    2
     3     3     4   ar
     4     4     5   ar
     5     5     6   ar
     6     6     7   ar
     7     7     8    1
     8     8     9   ar
     9     9    10   ar
    10    10    11   ar
    11    11    12   ar
    12    12    13   ar
    13    13    14   ar
    14    14    15   ar
    15    15    16   ar
    16    13    17   ar
    17    17    18   ar
    18    18    19   ar
    19    19    20   ar
    20    20    21   ar
    21    21    22   ar
    22    22    23   ar
    23    23    24   ar
    24    24    25   ar
    25    25    26   ar
    26    26    27   ar
    27    27    28   ar
    28     7    29   ar
    29    29    30    2
    30    30     1    1
    31    29     3   ar
    32    16     8   ar
    33    22    17   ar
    34    28    23   ar
    35    14    10   ar
    36    28    12   ar
    37     1    31    1
    38     1    32    1
    39     2    33    1
    40     4    34    1
    41     5    35    1
    42     6    36    1
    43     9    37    1
    44    11    38    1
    45    15    39    1
    46    18    40    1
    47    19    41    1
    48    20    42    1
    49    21    43    1
    50    24    44    1
    51    25    45    1
    52    27    46    1
    53    30    47    1
