@<TRIPOS>MOLECULE
*****
 39 44 0 0 0
SMALL
GASTEIGER

@<TRIPOS>ATOM
      1 C          -5.0486   -2.0759    0.3662 C.3     1  UNL1       -0.0148
      2 C          -5.8782   -0.8304    0.2199 C.2     1  UNL1       -0.0725
      3 C          -5.0723    0.2025   -0.0580 C.ar    1  UNL1       -0.0212
      4 C          -5.3918    1.5904   -0.2750 C.ar    1  UNL1       -0.0543
      5 C          -4.3745    2.4354   -0.5343 C.ar    1  UNL1       -0.0606
      6 C          -2.9801    1.9808   -0.6051 C.ar    1  UNL1       -0.0520
      7 C          -2.6093    0.6899   -0.4046 C.ar    1  UNL1        0.0058
      8 C          -1.2301    0.3540   -0.5227 C.ar    1  UNL1        0.0495
      9 C          -0.5552   -0.5468   -1.3348 C.ar    1  UNL1       -0.0123
     10 C           0.8059   -0.4322   -0.9612 C.ar    1  UNL1        0.0674
     11 N           2.0555   -0.9238   -1.2497 N.ar    1  UNL1       -0.3514
     12 C           2.9585   -0.3019   -0.4196 C.ar    1  UNL1        0.0716
     13 C           4.3326   -0.4035   -0.2705 C.ar    1  UNL1       -0.0096
     14 C           5.3816   -1.2299   -0.9529 C.3     1  UNL1       -0.0066
     15 C           6.6210   -0.7639   -0.2248 C.2     1  UNL1       -0.0790
     16 C           6.3589    0.1629    0.7122 C.2     1  UNL1       -0.0564
     17 C           4.9262    0.4078    0.7040 C.ar    1  UNL1       -0.0017
     18 C           4.1526    1.2625    1.4683 C.ar    1  UNL1        0.0358
     19 N           2.8065    1.3895    1.3506 N.ar    1  UNL1       -0.2508
     20 C           2.2667    0.5911    0.4007 C.ar    1  UNL1        0.1126
     21 C           0.9130    0.4863    0.0352 C.ar    1  UNL1        0.0910
     22 N          -0.3310    0.9704    0.3220 N.ar    1  UNL1       -0.3512
     23 C          -3.6865   -0.2544   -0.1221 C.ar    1  UNL1       -0.0127
     24 C          -3.6525   -1.5730    0.1262 C.2     1  UNL1       -0.0719
     25 H          -5.3300   -2.8260   -0.3788 H       1  UNL1        0.0350
     26 H          -5.1470   -2.4978    1.3707 H       1  UNL1        0.0350
     27 H          -6.9505   -0.7921    0.3298 H       1  UNL1        0.0581
     28 H          -6.4205    1.9257   -0.2259 H       1  UNL1        0.0624
     29 H          -4.5626    3.4906   -0.7067 H       1  UNL1        0.0618
     30 H          -2.2481    2.7455   -0.8522 H       1  UNL1        0.0624
     31 H          -0.9946   -1.1849   -2.0892 H       1  UNL1        0.0659
     32 H           2.2377   -1.6221   -1.9581 H       1  UNL1        0.1660
     33 H           5.2099   -2.2984   -0.7966 H       1  UNL1        0.0356
     34 H           5.4393   -0.9971   -2.0197 H       1  UNL1        0.0356
     35 H           7.6079   -1.1458   -0.4459 H       1  UNL1        0.0575
     36 H           7.0634    0.6524    1.3650 H       1  UNL1        0.0621
     37 H           4.6040    1.8953    2.2263 H       1  UNL1        0.0836
     38 H          -0.5105    1.6556    1.0460 H       1  UNL1        0.1660
     39 H          -2.7671   -2.1888    0.1586 H       1  UNL1        0.0581
@<TRIPOS>BOND
     1     1     2    1
     2     2     3    2
     3     3     4   ar
     4     4     5   ar
     5     5     6   ar
     6     6     7   ar
     7     7     8    1
     8     8     9   ar
     9     9    10   ar
    10    10    11   ar
    11    11    12   ar
    12    12    13   ar
    13    13    14    1
    14    14    15    1
    15    15    16    2
    16    16    17    1
    17    17    18   ar
    18    18    19   ar
    19    19    20   ar
    20    20    21   ar
    21    21    22   ar
    22     7    23   ar
    23    23    24    2
    24    24     1    1
    25    23     3   ar
    26    22     8   ar
    27    21    10   ar
    28    20    12   ar
    29    17    13   ar
    30     1    25    1
    31     1    26    1
    32     2    27    1
    33     4    28    1
    34     5    29    1
    35     6    30    1
    36     9    31    1
    37    11    32    1
    38    14    33    1
    39    14    34    1
    40    15    35    1
    41    16    36    1
    42    18    37    1
    43    22    38    1
    44    24    39    1
