@<TRIPOS>MOLECULE
*****
 42 48 0 0 0
SMALL
GASTEIGER

@<TRIPOS>ATOM
      1 C          -4.8521    0.0032    2.0949 C.3     1  UNL1       -0.0148
      2 C          -5.6939    0.7001    1.0615 C.2     1  UNL1       -0.0725
      3 C          -4.9375    0.9713   -0.0098 C.ar    1  UNL1       -0.0212
      4 C          -5.2840    1.6262   -1.2461 C.ar    1  UNL1       -0.0543
      5 C          -4.3149    1.7780   -2.1710 C.ar    1  UNL1       -0.0606
      6 C          -2.9444    1.2996   -1.9521 C.ar    1  UNL1       -0.0534
      7 C          -2.5604    0.6685   -0.8149 C.ar    1  UNL1       -0.0097
      8 C          -1.1699    0.2330   -0.6933 C.ar    1  UNL1       -0.0046
      9 C          -0.0853    1.1193   -0.4363 C.ar    1  UNL1       -0.0293
     10 C           1.2358    0.6155   -0.3186 C.ar    1  UNL1        0.0493
     11 N           2.4495    1.2232   -0.0760 N.ar    1  UNL1       -0.3534
     12 C           3.4428    0.2567   -0.0595 C.ar    1  UNL1        0.0588
     13 C           4.8288    0.1611    0.1188 C.ar    1  UNL1       -0.0055
     14 C           5.9569    1.0691    0.3860 C.3     1  UNL1       -0.0061
     15 C           7.0996    0.0389    0.4157 C.2     1  UNL1       -0.0785
     16 C           6.6582   -1.2240    0.1991 C.2     1  UNL1       -0.0513
     17 C           5.2609   -1.1339    0.0184 C.ar    1  UNL1        0.0180
     18 S           4.0668   -2.2756   -0.2862 S.2     1  UNL1       -0.0864
     19 C           2.8834   -0.9897   -0.2902 C.ar    1  UNL1        0.0461
     20 C           1.5243   -0.7259   -0.4438 C.ar    1  UNL1        0.0247
     21 C           0.5008   -1.6569   -0.6962 C.ar    1  UNL1        0.0307
     22 C           0.4729   -3.0030   -0.8649 C.ar    1  UNL1        0.1001
     23 O          -0.8363   -3.3580   -1.0880 O.2     1  UNL1       -0.4698
     24 C          -1.5921   -2.2088   -1.0514 C.ar    1  UNL1        0.1000
     25 C          -0.7930   -1.1153   -0.8048 C.ar    1  UNL1        0.0283
     26 C          -3.5767    0.4918    0.2133 C.ar    1  UNL1       -0.0141
     27 C          -3.5056   -0.0704    1.4294 C.2     1  UNL1       -0.0720
     28 H          -4.8022    0.5860    3.0194 H       1  UNL1        0.0350
     29 H          -5.2401   -0.9970    2.3089 H       1  UNL1        0.0350
     30 H          -6.7393    0.9374    1.1817 H       1  UNL1        0.0581
     31 H          -6.2951    1.9782   -1.4092 H       1  UNL1        0.0624
     32 H          -4.5266    2.2636   -3.1186 H       1  UNL1        0.0618
     33 H          -2.2429    1.4700   -2.7650 H       1  UNL1        0.0624
     34 H          -0.2757    2.1842   -0.3234 H       1  UNL1        0.0644
     35 H           2.6241    2.2085    0.0713 H       1  UNL1        0.1659
     36 H           6.1093    1.7938   -0.4182 H       1  UNL1        0.0357
     37 H           5.8663    1.5754    1.3507 H       1  UNL1        0.0357
     38 H           8.1308    0.3097    0.5908 H       1  UNL1        0.0576
     39 H           7.2454   -2.1296    0.1680 H       1  UNL1        0.0626
     40 H           1.1911   -3.8095   -0.8663 H       1  UNL1        0.1036
     41 H          -2.6512   -2.3513   -1.2158 H       1  UNL1        0.1036
     42 H          -2.6285   -0.5134    1.8760 H       1  UNL1        0.0581
@<TRIPOS>BOND
     1     1     2    1
     2     2     3    2
     3     3     4   ar
     4     4     5   ar
     5     5     6   ar
     6     6     7   ar
     7     7     8    1
     8     8     9   ar
     9     9    10   ar
    10    10    11   ar
    11    11    12   ar
    12    12    13   ar
    13    13    14    1
    14    14    15    1
    15    15    16    2
    16    16    17    1
    17    17    18   ar
    18    18    19   ar
    19    19    20   ar
    20    20    21   ar
    21    21    22   ar
    22    22    23   ar
    23    23    24   ar
    24    24    25   ar
    25     7    26   ar
    26    26    27    2
    27    27     1    1
    28    26     3   ar
    29    25     8   ar
    30    20    10   ar
    31    25    21   ar
    32    19    12   ar
    33    17    13   ar
    34     1    28    1
    35     1    29    1
    36     2    30    1
    37     4    31    1
    38     5    32    1
    39     6    33    1
    40     9    34    1
    41    11    35    1
    42    14    36    1
    43    14    37    1
    44    15    38    1
    45    16    39    1
    46    22    40    1
    47    24    41    1
    48    27    42    1
