@<TRIPOS>MOLECULE
*****
 46 52 0 0 0
SMALL
GASTEIGER

@<TRIPOS>ATOM
      1 C           6.0740   -0.1103    2.3273 C.3     1  UNL1        0.0000
      2 C           6.9435   -0.1018    1.1005 C.2     1  UNL1        0.0000
      3 C           6.1763    0.0991    0.0213 C.ar    1  UNL1        0.0000
      4 C           6.5422    0.1791   -1.3699 C.ar    1  UNL1        0.0000
      5 C           5.5576    0.3852   -2.2668 C.ar    1  UNL1        0.0000
      6 C           4.1530    0.5326   -1.8649 C.ar    1  UNL1        0.0000
      7 C           3.7395    0.4612   -0.5735 C.ar    1  UNL1        0.0000
      8 C           2.3559    0.6423   -0.2934 C.ar    1  UNL1        0.0000
      9 C           1.6627    1.5413    0.5145 C.ar    1  UNL1        0.0000
     10 C           0.3228    1.1997    0.3927 C.ar    1  UNL1        0.0000
     11 SI         -1.3865    1.6711    0.9704 Si      1  UNL1        0.0000
     12 C          -2.1675    0.2518   -0.0614 C.ar    1  UNL1        0.0000
     13 C          -1.1152   -0.4278   -0.7268 C.ar    1  UNL1        0.0000
     14 N          -1.2329   -1.4794   -1.5474 N.ar    1  UNL1        0.0000
     15 C          -2.5058   -1.8978   -1.7253 C.ar    1  UNL1        0.0000
     16 C          -3.6374   -1.3185   -1.1295 C.ar    1  UNL1        0.0000
     17 C          -4.9743   -1.8947   -1.4249 C.ar    1  UNL1        0.0000
     18 C          -6.0956   -1.3865   -0.8869 C.ar    1  UNL1        0.0000
     19 C          -5.9952   -0.2572   -0.0042 C.ar    1  UNL1        0.0000
     20 C          -6.9905    0.3832    0.6230 C.2     1  UNL1        0.0000
     21 C          -6.4202    1.5004    1.4392 C.3     1  UNL1        0.0000
     22 C          -4.9458    1.3806    1.1668 C.2     1  UNL1        0.0000
     23 C          -4.7085    0.3572    0.3276 C.ar    1  UNL1        0.0000
     24 C          -3.4684   -0.1968   -0.2607 C.ar    1  UNL1        0.0000
     25 C           0.1934    0.1215   -0.4489 C.ar    1  UNL1        0.0000
     26 N           1.4399   -0.2311   -0.8641 N.ar    1  UNL1        0.0000
     27 C           4.7802    0.2402    0.4261 C.ar    1  UNL1        0.0000
     28 C           4.7006    0.1168    1.7602 C.2     1  UNL1        0.0000
     29 H           6.3541    0.6941    3.0137 H       1  UNL1        0.0000
     30 H           6.1319   -1.0732    2.8432 H       1  UNL1        0.0000
     31 H           8.0131   -0.2412    1.1066 H       1  UNL1        0.0000
     32 H           7.5785    0.0740   -1.6665 H       1  UNL1        0.0000
     33 H           5.7814    0.4556   -3.3267 H       1  UNL1        0.0000
     34 H           3.4511    0.7277   -2.6718 H       1  UNL1        0.0000
     35 H           2.1113    2.3344    1.0989 H       1  UNL1        0.0000
     36 H          -1.8429    3.0010    0.4885 H       1  UNL1        0.0000
     37 H          -1.6104    1.4653    2.4254 H       1  UNL1        0.0000
     38 H          -2.6018   -2.7522   -2.3909 H       1  UNL1        0.0000
     39 H          -5.0281   -2.7475   -2.0940 H       1  UNL1        0.0000
     40 H          -7.0695   -1.8102   -1.1051 H       1  UNL1        0.0000
     41 H          -8.0413    0.1460    0.5615 H       1  UNL1        0.0000
     42 H          -6.6356    1.3632    2.5029 H       1  UNL1        0.0000
     43 H          -6.8038    2.4693    1.1065 H       1  UNL1        0.0000
     44 H          -4.2360    2.0533    1.6140 H       1  UNL1        0.0000
     45 H           1.6532   -1.0091   -1.4750 H       1  UNL1        0.0000
     46 H           3.7968    0.1654    2.3477 H       1  UNL1        0.0000
@<TRIPOS>BOND
     1     1     2    1
     2     2     3    2
     3     3     4   ar
     4     4     5   ar
     5     5     6   ar
     6     6     7   ar
     7     7     8    1
     8     8     9   ar
     9     9    10   ar
    10    10    11    1
    11    11    12    1
    12    12    13   ar
    13    13    14   ar
    14    14    15   ar
    15    15    16   ar
    16    16    17   ar
    17    17    18   ar
    18    18    19   ar
    19    19    20    2
    20    20    21    1
    21    21    22    1
    22    22    23    2
    23    23    24   ar
    24    13    25    1
    25    25    26   ar
    26     7    27   ar
    27    27    28    2
    28    28     1    1
    29    27     3   ar
    30    26     8   ar
    31    25    10   ar
    32    24    12   ar
    33    24    16   ar
    34    23    19   ar
    35     1    29    1
    36     1    30    1
    37     2    31    1
    38     4    32    1
    39     5    33    1
    40     6    34    1
    41     9    35    1
    42    11    36    1
    43    11    37    1
    44    15    38    1
    45    17    39    1
    46    18    40    1
    47    20    41    1
    48    21    42    1
    49    21    43    1
    50    22    44    1
    51    26    45    1
    52    28    46    1
