@<TRIPOS>MOLECULE
*****
 46 52 0 0 0
SMALL
GASTEIGER

@<TRIPOS>ATOM
      1 C          -4.1785    3.5440   -0.3252 C.3     1  UNL1        0.0000
      2 C          -5.5000    2.8292   -0.3390 C.2     1  UNL1        0.0000
      3 C          -5.2830    1.5081   -0.3713 C.ar    1  UNL1        0.0000
      4 C          -6.2293    0.4236   -0.4041 C.ar    1  UNL1        0.0000
      5 C          -5.7417   -0.8313   -0.4425 C.ar    1  UNL1        0.0000
      6 C          -4.2999   -1.1096   -0.4454 C.ar    1  UNL1        0.0000
      7 C          -3.3498   -0.1382   -0.4168 C.ar    1  UNL1        0.0000
      8 C          -1.9648   -0.5209   -0.4048 C.ar    1  UNL1        0.0000
      9 C          -1.3354   -1.6596   -0.9257 C.ar    1  UNL1        0.0000
     10 C           0.0391   -1.5491   -0.6514 C.ar    1  UNL1        0.0000
     11 C           0.2060   -0.3713    0.0213 C.ar    1  UNL1        0.0000
     12 O          -0.9762    0.2660    0.1742 O.2     1  UNL1        0.0000
     13 C           1.4479    0.2183    0.4929 C.ar    1  UNL1        0.0000
     14 C           1.4546    1.4348    1.1750 C.ar    1  UNL1        0.0000
     15 C           2.6625    2.0190    1.5350 C.ar    1  UNL1        0.0000
     16 C           3.8794    1.4364    1.1610 C.ar    1  UNL1        0.0000
     17 C           5.0744    2.0951    1.4759 C.ar    1  UNL1        0.0000
     18 C           6.2724    1.5575    1.0474 C.ar    1  UNL1        0.0000
     19 N           6.3568    0.4354    0.3169 N.ar    1  UNL1        0.0000
     20 C           5.1856   -0.1901    0.0301 C.ar    1  UNL1        0.0000
     21 C           3.9017    0.2088    0.4491 C.ar    1  UNL1        0.0000
     22 C           2.6656   -0.4676    0.1856 C.ar    1  UNL1        0.0000
     23 C           2.5130   -1.8606   -0.4066 C.ar    1  UNL1        0.0000
     24 C           3.4578   -2.8268   -0.4525 C.2     1  UNL1        0.0000
     25 SI          2.8411   -4.3969   -1.2756 Si      1  UNL1        0.0000
     26 C           1.1628   -3.6123   -1.3890 C.2     1  UNL1        0.0000
     27 C           1.1760   -2.3649   -0.8826 C.ar    1  UNL1        0.0000
     28 C          -3.8463    1.2385   -0.3771 C.ar    1  UNL1        0.0000
     29 C          -3.1918    2.4109   -0.3565 C.2     1  UNL1        0.0000
     30 H          -4.0631    4.1412    0.5840 H       1  UNL1        0.0000
     31 H          -4.0689    4.1850   -1.2048 H       1  UNL1        0.0000
     32 H          -6.4612    3.3187   -0.3291 H       1  UNL1        0.0000
     33 H          -7.2928    0.6287   -0.3993 H       1  UNL1        0.0000
     34 H          -6.4138   -1.6836   -0.4673 H       1  UNL1        0.0000
     35 H          -4.0388   -2.1639   -0.4513 H       1  UNL1        0.0000
     36 H          -1.8314   -2.4647   -1.4485 H       1  UNL1        0.0000
     37 H           0.5206    1.9336    1.4236 H       1  UNL1        0.0000
     38 H           2.6413    2.9642    2.0745 H       1  UNL1        0.0000
     39 H           5.0800    3.0249    2.0358 H       1  UNL1        0.0000
     40 H           7.2182    2.0413    1.2726 H       1  UNL1        0.0000
     41 H           5.3314   -1.0395   -0.6259 H       1  UNL1        0.0000
     42 H           4.4642   -2.8203   -0.0739 H       1  UNL1        0.0000
     43 H           3.4633   -4.6120   -2.6033 H       1  UNL1        0.0000
     44 H           2.8671   -5.5584   -0.3554 H       1  UNL1        0.0000
     45 H           0.3047   -4.1630   -1.7394 H       1  UNL1        0.0000
     46 H          -2.1206    2.5413   -0.3630 H       1  UNL1        0.0000
@<TRIPOS>BOND
     1     1     2    1
     2     2     3    2
     3     3     4   ar
     4     4     5   ar
     5     5     6   ar
     6     6     7   ar
     7     7     8    1
     8     8     9   ar
     9     9    10   ar
    10    10    11   ar
    11    11    12   ar
    12    11    13   ar
    13    13    14   ar
    14    14    15   ar
    15    15    16   ar
    16    16    17   ar
    17    17    18   ar
    18    18    19   ar
    19    19    20   ar
    20    20    21   ar
    21    21    22   ar
    22    22    23   ar
    23    23    24    2
    24    24    25    1
    25    25    26    1
    26    26    27    2
    27     7    28   ar
    28    28    29    2
    29    29     1    1
    30    28     3   ar
    31    12     8   ar
    32    22    13   ar
    33    27    23   ar
    34    27    10   ar
    35    21    16   ar
    36     1    30    1
    37     1    31    1
    38     2    32    1
    39     4    33    1
    40     5    34    1
    41     6    35    1
    42     9    36    1
    43    14    37    1
    44    15    38    1
    45    17    39    1
    46    18    40    1
    47    20    41    1
    48    24    42    1
    49    25    43    1
    50    25    44    1
    51    26    45    1
    52    29    46    1
