@<TRIPOS>MOLECULE
*****
 45 51 0 0 0
SMALL
GASTEIGER

@<TRIPOS>ATOM
      1 C           6.0403   -1.1822   -0.7232 C.3     1  UNL1       -0.0148
      2 C           6.6166   -0.1001    0.1427 C.2     1  UNL1       -0.0725
      3 C           5.6162    0.5884    0.7068 C.ar    1  UNL1       -0.0211
      4 C           5.6740    1.7312    1.5811 C.ar    1  UNL1       -0.0543
      5 C           4.5078    2.2681    1.9872 C.ar    1  UNL1       -0.0605
      6 C           3.2122    1.7137    1.5804 C.ar    1  UNL1       -0.0505
      7 C           3.0798    0.6285    0.7735 C.ar    1  UNL1        0.0247
      8 C           1.7444    0.1799    0.4982 C.ar    1  UNL1        0.1369
      9 C           1.2661   -1.1151    0.2626 C.ar    1  UNL1       -0.0074
     10 C          -0.1185   -1.0219    0.0534 C.ar    1  UNL1        0.0303
     11 C          -0.4458    0.3041    0.1763 C.ar    1  UNL1        0.1621
     12 O           0.6532    1.0434    0.4494 O.2     1  UNL1       -0.4526
     13 C          -1.7709    0.8994    0.0506 C.ar    1  UNL1        0.1163
     14 N          -1.8632    2.2356    0.2139 N.ar    1  UNL1       -0.2505
     15 C          -3.0975    2.7524    0.0900 C.ar    1  UNL1        0.0376
     16 C          -4.2427    2.0049   -0.1866 C.ar    1  UNL1        0.0191
     17 C          -5.5009    2.6166   -0.3017 C.ar    1  UNL1       -0.0497
     18 C          -6.6203    1.8466   -0.5768 C.ar    1  UNL1       -0.0430
     19 C          -6.4399    0.4889   -0.7272 C.ar    1  UNL1        0.0283
     20 N          -5.2408   -0.1264   -0.6218 N.ar    1  UNL1       -0.2542
     21 C          -4.1315    0.6069   -0.3533 C.ar    1  UNL1        0.0822
     22 C          -2.8586    0.0339   -0.2313 C.ar    1  UNL1        0.0373
     23 C          -2.5363   -1.4236   -0.3711 C.ar    1  UNL1       -0.0098
     24 C          -3.3333   -2.4758   -0.6298 C.2     1  UNL1       -0.0718
     25 C          -2.5317   -3.7461   -0.6696 C.3     1  UNL1       -0.0148
     26 C          -1.1391   -3.2636   -0.3924 C.2     1  UNL1       -0.0718
     27 C          -1.1593   -1.9359   -0.2246 C.ar    1  UNL1       -0.0103
     28 C           4.3275    0.0331    0.2907 C.ar    1  UNL1       -0.0111
     29 C           4.5588   -0.9872   -0.5519 C.2     1  UNL1       -0.0719
     30 H           6.3495   -2.1725   -0.3762 H       1  UNL1        0.0350
     31 H           6.3353   -1.0483   -1.7681 H       1  UNL1        0.0350
     32 H           7.6713    0.0914    0.2644 H       1  UNL1        0.0581
     33 H           6.6308    2.1400    1.8819 H       1  UNL1        0.0624
     34 H           4.4937    3.1350    2.6405 H       1  UNL1        0.0618
     35 H           2.3383    2.2210    1.9846 H       1  UNL1        0.0625
     36 H           1.8668   -2.0128    0.2634 H       1  UNL1        0.0662
     37 H          -3.1455    3.8305    0.2244 H       1  UNL1        0.0836
     38 H          -5.6114    3.6914   -0.1776 H       1  UNL1        0.0625
     39 H          -7.6036    2.2926   -0.6711 H       1  UNL1        0.0633
     40 H          -7.2777   -0.1680   -0.9437 H       1  UNL1        0.0830
     41 H          -4.4005   -2.4470   -0.7903 H       1  UNL1        0.0581
     42 H          -2.5959   -4.2206   -1.6531 H       1  UNL1        0.0350
     43 H          -2.8668   -4.4465    0.1009 H       1  UNL1        0.0350
     44 H          -0.2699   -3.9002   -0.3397 H       1  UNL1        0.0581
     45 H           3.8189   -1.5840   -1.0601 H       1  UNL1        0.0581
@<TRIPOS>BOND
     1     1     2    1
     2     2     3    2
     3     3     4   ar
     4     4     5   ar
     5     5     6   ar
     6     6     7   ar
     7     7     8    1
     8     8     9   ar
     9     9    10   ar
    10    10    11   ar
    11    11    12   ar
    12    11    13   ar
    13    13    14   ar
    14    14    15   ar
    15    15    16   ar
    16    16    17   ar
    17    17    18   ar
    18    18    19   ar
    19    19    20   ar
    20    20    21   ar
    21    21    22   ar
    22    22    23   ar
    23    23    24    2
    24    24    25    1
    25    25    26    1
    26    26    27    2
    27     7    28   ar
    28    28    29    2
    29    29     1    1
    30    28     3   ar
    31    12     8   ar
    32    22    13   ar
    33    27    23   ar
    34    27    10   ar
    35    21    16   ar
    36     1    30    1
    37     1    31    1
    38     2    32    1
    39     4    33    1
    40     5    34    1
    41     6    35    1
    42     9    36    1
    43    15    37    1
    44    17    38    1
    45    18    39    1
    46    19    40    1
    47    24    41    1
    48    25    42    1
    49    25    43    1
    50    26    44    1
    51    29    45    1
