@<TRIPOS>MOLECULE
*****
 46 53 0 0 0
SMALL
GASTEIGER

@<TRIPOS>ATOM
      1 C          -5.2276   -2.8574    0.3252 C.3     1  UNL1       -0.0148
      2 C          -6.3858   -1.9415    0.6025 C.2     1  UNL1       -0.0725
      3 C          -5.9562   -0.6733    0.5805 C.ar    1  UNL1       -0.0211
      4 C          -6.6921    0.5470    0.7836 C.ar    1  UNL1       -0.0543
      5 C          -6.0137    1.7075    0.7028 C.ar    1  UNL1       -0.0605
      6 C          -4.5728    1.7523    0.4230 C.ar    1  UNL1       -0.0505
      7 C          -3.8141    0.6433    0.2179 C.ar    1  UNL1        0.0247
      8 C          -2.4069    0.7996   -0.0363 C.ar    1  UNL1        0.1369
      9 C          -1.7032    1.8833   -0.5901 C.ar    1  UNL1       -0.0073
     10 C          -0.3718    1.4972   -0.6059 C.ar    1  UNL1        0.0326
     11 C           0.8164    2.0873   -1.0723 C.ar    1  UNL1        0.0313
     12 C           0.9470    3.2825   -1.7133 C.ar    1  UNL1        0.1001
     13 O           2.2597    3.4157   -2.0947 O.2     1  UNL1       -0.4698
     14 C           2.9332    2.2886   -1.6765 C.ar    1  UNL1        0.1000
     15 C           2.0757    1.4745   -0.9906 C.ar    1  UNL1        0.0295
     16 C           2.2904    0.1825   -0.3899 C.ar    1  UNL1        0.0118
     17 C           1.1318   -0.4644   -0.0096 C.ar    1  UNL1        0.0640
     18 S           1.3976   -2.0544    0.4979 S.2     1  UNL1       -0.0845
     19 C           3.1161   -1.9022    0.2746 C.ar    1  UNL1        0.0213
     20 C           4.0937   -2.9231    0.4927 C.ar    1  UNL1       -0.0468
     21 C           5.4711   -2.6814    0.3618 C.ar    1  UNL1       -0.0515
     22 C           5.7285   -1.3560    0.0654 C.ar    1  UNL1        0.0001
     23 C           6.9937   -0.8226   -0.0042 C.ar    1  UNL1        0.0094
     24 N           6.8580    0.5343   -0.2183 N.ar    1  UNL1       -0.3659
     25 C           5.5194    0.8753   -0.2767 C.ar    1  UNL1        0.0100
     26 C           4.8304   -0.2971   -0.1667 C.ar    1  UNL1        0.0082
     27 C           3.4231   -0.5962   -0.1290 C.ar    1  UNL1        0.0068
     28 C          -0.2482    0.2396   -0.1003 C.ar    1  UNL1        0.1506
     29 O          -1.4801   -0.2065    0.2481 O.2     1  UNL1       -0.4536
     30 C          -4.5220   -0.6364    0.2987 C.ar    1  UNL1       -0.0111
     31 C          -4.0862   -1.8970    0.1430 C.2     1  UNL1       -0.0719
     32 H          -5.3976   -3.4428   -0.5831 H       1  UNL1        0.0350
     33 H          -5.0457   -3.5292    1.1692 H       1  UNL1        0.0350
     34 H          -7.3964   -2.2709    0.7857 H       1  UNL1        0.0581
     35 H          -7.7544    0.5136    0.9927 H       1  UNL1        0.0624
     36 H          -6.5229    2.6551    0.8501 H       1  UNL1        0.0618
     37 H          -4.1444    2.7502    0.4100 H       1  UNL1        0.0625
     38 H          -2.1395    2.8067   -0.9418 H       1  UNL1        0.0662
     39 H           0.2877    4.0866   -2.0064 H       1  UNL1        0.1036
     40 H           3.9615    2.2457   -1.9965 H       1  UNL1        0.1036
     41 H           3.7607   -3.9176    0.7861 H       1  UNL1        0.0629
     42 H           6.2199   -3.4412    0.5388 H       1  UNL1        0.0624
     43 H           7.9751   -1.2632    0.1100 H       1  UNL1        0.0813
     44 H           7.6258    1.1915   -0.2707 H       1  UNL1        0.1648
     45 H           5.2386    1.9139   -0.3394 H       1  UNL1        0.0813
     46 H          -3.0738   -2.1995   -0.0775 H       1  UNL1        0.0581
@<TRIPOS>BOND
     1     1     2    1
     2     2     3    2
     3     3     4   ar
     4     4     5   ar
     5     5     6   ar
     6     6     7   ar
     7     7     8    1
     8     8     9   ar
     9     9    10   ar
    10    10    11   ar
    11    11    12   ar
    12    12    13   ar
    13    13    14   ar
    14    14    15   ar
    15    15    16   ar
    16    16    17   ar
    17    17    18   ar
    18    18    19   ar
    19    19    20   ar
    20    20    21   ar
    21    21    22   ar
    22    22    23   ar
    23    23    24   ar
    24    24    25   ar
    25    25    26   ar
    26    26    27   ar
    27    17    28   ar
    28    28    29   ar
    29     7    30   ar
    30    30    31    2
    31    31     1    1
    32    30     3   ar
    33    29     8   ar
    34    28    10   ar
    35    15    11   ar
    36    27    16   ar
    37    27    19   ar
    38    26    22   ar
    39     1    32    1
    40     1    33    1
    41     2    34    1
    42     4    35    1
    43     5    36    1
    44     6    37    1
    45     9    38    1
    46    12    39    1
    47    14    40    1
    48    20    41    1
    49    21    42    1
    50    23    43    1
    51    24    44    1
    52    25    45    1
    53    31    46    1
