@<TRIPOS>MOLECULE
*****
 40 46 0 0 0
SMALL
GASTEIGER

@<TRIPOS>ATOM
      1 SI          0.7229   -3.5104   -1.0119 Si      1  UNL1        0.0000
      2 C           1.9714   -2.2102   -0.5192 C.2     1  UNL1        0.0000
      3 C           1.3707   -1.0620   -0.1434 C.ar    1  UNL1        0.0000
      4 C           2.0664    0.1543    0.2891 C.ar    1  UNL1        0.0000
      5 C           1.3340    1.2291    0.6571 C.ar    1  UNL1        0.0000
      6 C          -0.1427    1.2376    0.6258 C.ar    1  UNL1        0.0000
      7 N          -0.7168    2.3990    1.0280 N.ar    1  UNL1        0.0000
      8 C          -2.0700    2.5038    1.0307 C.ar    1  UNL1        0.0000
      9 C          -2.8603    1.4277    0.6285 C.ar    1  UNL1        0.0000
     10 C          -4.2516    1.1917    0.5104 C.ar    1  UNL1        0.0000
     11 N          -5.3125    2.0000    0.7713 N.ar    1  UNL1        0.0000
     12 C          -6.5160    1.4249    0.5371 C.ar    1  UNL1        0.0000
     13 C          -6.7222    0.1280    0.0719 C.ar    1  UNL1        0.0000
     14 C          -5.6254   -0.6921   -0.1914 C.ar    1  UNL1        0.0000
     15 C          -4.3886   -0.1088    0.0461 C.ar    1  UNL1        0.0000
     16 O          -3.1702   -0.6838   -0.1268 O.2     1  UNL1        0.0000
     17 C          -2.2309    0.2492    0.2259 C.ar    1  UNL1        0.0000
     18 C          -0.8485    0.1006    0.2068 C.ar    1  UNL1        0.0000
     19 C          -0.1145   -1.1046   -0.1966 C.ar    1  UNL1        0.0000
     20 C          -0.6262   -2.2789   -0.6180 C.2     1  UNL1        0.0000
     21 C           3.5219    0.2807    0.3777 C.ar    1  UNL1        0.0000
     22 C           4.2602    0.1465    1.5571 C.ar    1  UNL1        0.0000
     23 N           5.6232    0.2383    1.7025 N.ar    1  UNL1        0.0000
     24 C           6.4243    0.4846    0.6236 C.ar    1  UNL1        0.0000
     25 C           5.8152    0.6373   -0.6385 C.ar    1  UNL1        0.0000
     26 N           6.4376    0.8767   -1.8043 N.ar    1  UNL1        0.0000
     27 S           5.2477    0.9661   -2.9589 S.2     1  UNL1        0.0000
     28 N           3.8972    0.6995   -2.0349 N.ar    1  UNL1        0.0000
     29 C           4.3169    0.5313   -0.7673 C.ar    1  UNL1        0.0000
     30 H           0.7206   -4.6665   -0.0837 H       1  UNL1        0.0000
     31 H           0.7870   -3.8434   -2.4549 H       1  UNL1        0.0000
     32 H           3.0280   -2.4193   -0.5680 H       1  UNL1        0.0000
     33 H           1.7912    2.1575    0.9872 H       1  UNL1        0.0000
     34 H          -2.4864    3.4508    1.3568 H       1  UNL1        0.0000
     35 H          -7.3687    2.0690    0.7441 H       1  UNL1        0.0000
     36 H          -7.7320   -0.2395   -0.0838 H       1  UNL1        0.0000
     37 H          -5.7227   -1.7069   -0.5537 H       1  UNL1        0.0000
     38 H          -1.6625   -2.5488   -0.7387 H       1  UNL1        0.0000
     39 H           3.7408   -0.0575    2.4942 H       1  UNL1        0.0000
     40 H           7.4914    0.5487    0.7900 H       1  UNL1        0.0000
@<TRIPOS>BOND
     1     1     2    1
     2     2     3    2
     3     3     4   ar
     4     4     5   ar
     5     5     6   ar
     6     6     7   ar
     7     7     8   ar
     8     8     9   ar
     9     9    10   ar
    10    10    11   ar
    11    11    12   ar
    12    12    13   ar
    13    13    14   ar
    14    14    15   ar
    15    15    16   ar
    16    16    17   ar
    17    17    18   ar
    18    18    19   ar
    19    19    20    2
    20     4    21    1
    21    21    22   ar
    22    22    23   ar
    23    23    24   ar
    24    24    25   ar
    25    25    26   ar
    26    26    27   ar
    27    27    28   ar
    28    28    29   ar
    29    20     1    1
    30    29    21   ar
    31    19     3   ar
    32    29    25   ar
    33    18     6   ar
    34    17     9   ar
    35    15    10   ar
    36     1    30    1
    37     1    31    1
    38     2    32    1
    39     5    33    1
    40     8    34    1
    41    12    35    1
    42    13    36    1
    43    14    37    1
    44    20    38    1
    45    22    39    1
    46    24    40    1
