@<TRIPOS>MOLECULE
*****
 46 53 0 0 0
SMALL
GASTEIGER

@<TRIPOS>ATOM
      1 C          -5.1959   -1.8941    1.3045 C.3     1  UNL1       -0.0148
      2 C          -6.1189   -0.7078    1.3166 C.2     1  UNL1       -0.0725
      3 C          -5.4606    0.3645    0.8584 C.ar    1  UNL1       -0.0212
      4 C          -5.9182    1.7176    0.6692 C.ar    1  UNL1       -0.0543
      5 C          -5.0413    2.6145    0.1760 C.ar    1  UNL1       -0.0606
      6 C          -3.6582    2.2531   -0.1570 C.ar    1  UNL1       -0.0534
      7 C          -3.1691    0.9962   -0.0092 C.ar    1  UNL1       -0.0083
      8 C          -1.7612    0.7354   -0.3297 C.ar    1  UNL1        0.0115
      9 C          -0.8127    0.4338    0.6532 C.ar    1  UNL1       -0.0434
     10 C           0.5582    0.1686    0.3459 C.ar    1  UNL1       -0.0038
     11 C           1.5198   -0.1365    1.3295 C.ar    1  UNL1        0.0283
     12 C           1.3223   -0.2285    2.6855 C.ar    1  UNL1        0.1000
     13 O           2.4939   -0.5436    3.3045 O.2     1  UNL1       -0.4698
     14 C           3.4490   -0.6535    2.3358 C.ar    1  UNL1        0.1001
     15 C           2.9027   -0.4123    1.0990 C.ar    1  UNL1        0.0302
     16 C           3.5215   -0.4214   -0.1560 C.ar    1  UNL1        0.0203
     17 C           4.8713   -0.6848   -0.4354 C.ar    1  UNL1        0.0735
     18 N           5.9684   -0.9972    0.3352 N.ar    1  UNL1       -0.3589
     19 C           7.0814   -1.1598   -0.4507 C.ar    1  UNL1        0.0042
     20 C           6.7050   -0.9498   -1.7567 C.ar    1  UNL1       -0.0183
     21 C           5.3233   -0.6523   -1.7519 C.ar    1  UNL1        0.0891
     22 N           4.5261   -0.3767   -2.8028 N.ar    1  UNL1       -0.2528
     23 C           3.2276   -0.1272   -2.4921 C.ar    1  UNL1        0.0367
     24 C           2.6144   -0.1200   -1.2246 C.ar    1  UNL1        0.0127
     25 C           1.1640    0.1684   -0.9756 C.ar    1  UNL1        0.0202
     26 C           0.1753    0.4821   -1.9958 C.ar    1  UNL1        0.1088
     27 N           0.4007    0.5636   -3.3198 N.ar    1  UNL1       -0.1901
     28 S          -1.0234    0.9367   -4.0645 S.2     1  UNL1        0.1165
     29 N          -2.0268    1.0310   -2.7601 N.ar    1  UNL1       -0.1901
     30 C          -1.2888    0.7656   -1.6671 C.ar    1  UNL1        0.1082
     31 C          -4.0889   -0.0045    0.5196 C.ar    1  UNL1       -0.0140
     32 C          -3.9160   -1.3119    0.7688 C.2     1  UNL1       -0.0720
     33 H          -5.0541   -2.2929    2.3132 H       1  UNL1        0.0350
     34 H          -5.5753   -2.6808    0.6458 H       1  UNL1        0.0350
     35 H          -7.1484   -0.7354    1.6375 H       1  UNL1        0.0581
     36 H          -6.9392    1.9854    0.9121 H       1  UNL1        0.0624
     37 H          -5.3400    3.6447    0.0079 H       1  UNL1        0.0618
     38 H          -3.0365    3.0606   -0.5357 H       1  UNL1        0.0624
     39 H          -1.1497    0.4055    1.6892 H       1  UNL1        0.0631
     40 H           0.4749   -0.1107    3.3464 H       1  UNL1        0.1036
     41 H           4.4264   -0.9026    2.7160 H       1  UNL1        0.1036
     42 H           5.9711   -1.0962    1.3383 H       1  UNL1        0.1654
     43 H           8.0394   -1.4093   -0.0140 H       1  UNL1        0.0807
     44 H           7.3446   -1.0019   -2.6266 H       1  UNL1        0.0654
     45 H           2.6560    0.0848   -3.3906 H       1  UNL1        0.0836
     46 H          -3.0141   -1.8813    0.6078 H       1  UNL1        0.0581
@<TRIPOS>BOND
     1     1     2    1
     2     2     3    2
     3     3     4   ar
     4     4     5   ar
     5     5     6   ar
     6     6     7   ar
     7     7     8    1
     8     8     9   ar
     9     9    10   ar
    10    10    11   ar
    11    11    12   ar
    12    12    13   ar
    13    13    14   ar
    14    14    15   ar
    15    15    16   ar
    16    16    17   ar
    17    17    18   ar
    18    18    19   ar
    19    19    20   ar
    20    20    21   ar
    21    21    22   ar
    22    22    23   ar
    23    23    24   ar
    24    24    25   ar
    25    25    26   ar
    26    26    27   ar
    27    27    28   ar
    28    28    29   ar
    29    29    30   ar
    30     7    31   ar
    31    31    32    2
    32    32     1    1
    33    31     3   ar
    34    30     8   ar
    35    25    10   ar
    36    30    26   ar
    37    15    11   ar
    38    24    16   ar
    39    21    17   ar
    40     1    33    1
    41     1    34    1
    42     2    35    1
    43     4    36    1
    44     5    37    1
    45     6    38    1
    46     9    39    1
    47    12    40    1
    48    14    41    1
    49    18    42    1
    50    19    43    1
    51    20    44    1
    52    23    45    1
    53    32    46    1
