@<TRIPOS>MOLECULE
*****
 47 54 0 0 0
SMALL
GASTEIGER

@<TRIPOS>ATOM
      1 C           4.0336    2.6889   -1.5535 C.3     1  UNL1       -0.0148
      2 C           5.3190    2.2631   -0.9021 C.2     1  UNL1       -0.0725
      3 C           5.1077    1.1352   -0.2117 C.ar    1  UNL1       -0.0211
      4 C           6.0300    0.3459    0.5626 C.ar    1  UNL1       -0.0543
      5 C           5.5569   -0.7669    1.1562 C.ar    1  UNL1       -0.0605
      6 C           4.1519   -1.1777    1.0395 C.ar    1  UNL1       -0.0505
      7 C           3.2272   -0.4823    0.3270 C.ar    1  UNL1        0.0247
      8 C           1.8734   -0.9597    0.2958 C.ar    1  UNL1        0.1369
      9 C           1.3791   -2.2672    0.3413 C.ar    1  UNL1       -0.0074
     10 C          -0.0055   -2.1492    0.2695 C.ar    1  UNL1        0.0296
     11 C          -1.0339   -3.1248    0.2665 C.ar    1  UNL1        0.0005
     12 C          -0.8058   -4.4667    0.3444 C.ar    1  UNL1       -0.0159
     13 S          -2.3160   -5.2763    0.3118 S.2     1  UNL1       -0.1038
     14 C          -3.1919   -3.7869    0.1946 C.ar    1  UNL1       -0.0160
     15 C          -2.3861   -2.6662    0.1744 C.ar    1  UNL1       -0.0013
     16 C          -2.8011   -1.3105    0.0851 C.ar    1  UNL1        0.0088
     17 C          -4.1772   -0.7584   -0.0250 C.ar    1  UNL1        0.0283
     18 S          -5.6299   -1.6538   -0.0935 S.2     1  UNL1       -0.0960
     19 C          -6.6043   -0.2597   -0.2081 C.ar    1  UNL1       -0.0231
     20 C          -5.8541    0.8920   -0.2013 C.ar    1  UNL1       -0.0464
     21 C          -4.4643    0.6056   -0.0988 C.ar    1  UNL1       -0.0028
     22 C          -3.3927    1.5448   -0.0662 C.ar    1  UNL1       -0.0129
     23 C          -3.4136    2.8850   -0.1090 C.2     1  UNL1       -0.0719
     24 C          -2.0121    3.4091   -0.0336 C.3     1  UNL1       -0.0148
     25 C          -1.2025    2.1494    0.0582 C.2     1  UNL1       -0.0718
     26 C          -2.0108    1.0745    0.0348 C.ar    1  UNL1       -0.0099
     27 C          -1.7023   -0.3677    0.1037 C.ar    1  UNL1        0.0341
     28 C          -0.3744   -0.8319    0.1872 C.ar    1  UNL1        0.1446
     29 O           0.7838   -0.1031    0.1985 O.2     1  UNL1       -0.4542
     30 C           3.7090    0.7302   -0.3354 C.ar    1  UNL1       -0.0111
     31 C           3.0737    1.6177   -1.1174 C.2     1  UNL1       -0.0719
     32 H           3.7161    3.6720   -1.1938 H       1  UNL1        0.0350
     33 H           4.1324    2.7081   -2.6428 H       1  UNL1        0.0350
     34 H           6.2555    2.7909   -0.9925 H       1  UNL1        0.0581
     35 H           7.0657    0.6504    0.6514 H       1  UNL1        0.0624
     36 H           6.2123   -1.3954    1.7515 H       1  UNL1        0.0618
     37 H           3.8908   -2.0779    1.5888 H       1  UNL1        0.0625
     38 H           1.9774   -3.1646    0.4035 H       1  UNL1        0.0662
     39 H           0.1215   -5.0171    0.4173 H       1  UNL1        0.0700
     40 H          -4.2628   -3.8846    0.1517 H       1  UNL1        0.0700
     41 H          -7.6797   -0.3491   -0.2767 H       1  UNL1        0.0694
     42 H          -6.2875    1.8818   -0.2680 H       1  UNL1        0.0629
     43 H          -4.2900    3.5095   -0.1811 H       1  UNL1        0.0581
     44 H          -1.7543    3.9789   -0.9310 H       1  UNL1        0.0350
     45 H          -1.8714    4.0333    0.8536 H       1  UNL1        0.0350
     46 H          -0.1266    2.1481    0.1378 H       1  UNL1        0.0581
     47 H           2.0339    1.5835   -1.4042 H       1  UNL1        0.0581
@<TRIPOS>BOND
     1     1     2    1
     2     2     3    2
     3     3     4   ar
     4     4     5   ar
     5     5     6   ar
     6     6     7   ar
     7     7     8    1
     8     8     9   ar
     9     9    10   ar
    10    10    11   ar
    11    11    12   ar
    12    12    13   ar
    13    13    14   ar
    14    14    15   ar
    15    15    16   ar
    16    16    17   ar
    17    17    18   ar
    18    18    19   ar
    19    19    20   ar
    20    20    21   ar
    21    21    22   ar
    22    22    23    2
    23    23    24    1
    24    24    25    1
    25    25    26    2
    26    26    27   ar
    27    27    28   ar
    28    28    29   ar
    29     7    30   ar
    30    30    31    2
    31    31     1    1
    32    30     3   ar
    33    29     8   ar
    34    28    10   ar
    35    15    11   ar
    36    27    16   ar
    37    21    17   ar
    38    26    22   ar
    39     1    32    1
    40     1    33    1
    41     2    34    1
    42     4    35    1
    43     5    36    1
    44     6    37    1
    45     9    38    1
    46    12    39    1
    47    14    40    1
    48    19    41    1
    49    20    42    1
    50    23    43    1
    51    24    44    1
    52    24    45    1
    53    25    46    1
    54    31    47    1
