@<TRIPOS>MOLECULE
*****
 48 55 0 0 0
SMALL
GASTEIGER

@<TRIPOS>ATOM
      1 C           6.0485    0.4402   -1.8299 C.3     1  UNL1       -0.0148
      2 C           6.5143   -0.8415   -1.1958 C.2     1  UNL1       -0.0725
      3 C           5.6049   -1.2422   -0.2981 C.ar    1  UNL1       -0.0212
      4 C           5.5993   -2.4015    0.5571 C.ar    1  UNL1       -0.0543
      5 C           4.5450   -2.5700    1.3796 C.ar    1  UNL1       -0.0606
      6 C           3.4285   -1.6171    1.4239 C.ar    1  UNL1       -0.0520
      7 C           3.3687   -0.5099    0.6404 C.ar    1  UNL1        0.0057
      8 C           2.2490    0.3555    0.7756 C.ar    1  UNL1        0.0481
      9 C           2.1187    1.6879    1.1226 C.ar    1  UNL1       -0.0265
     10 C           0.7505    1.9543    1.0410 C.ar    1  UNL1        0.0290
     11 C           0.0728    3.1811    1.3050 C.ar    1  UNL1        0.1096
     12 N           0.7046    4.2812    1.6850 N.ar    1  UNL1       -0.1901
     13 S          -0.5528    5.3764    1.8470 S.2     1  UNL1        0.1165
     14 N          -1.8597    4.4168    1.4269 N.ar    1  UNL1       -0.1901
     15 C          -1.3714    3.1888    1.1394 C.ar    1  UNL1        0.1083
     16 C          -2.1218    2.0370    0.7287 C.ar    1  UNL1        0.0129
     17 C          -3.5284    2.0569    0.5703 C.ar    1  UNL1       -0.0441
     18 C          -4.2349    0.9165    0.1658 C.ar    1  UNL1       -0.0166
     19 C          -5.6730    0.9661    0.0121 C.ar    1  UNL1       -0.0534
     20 C          -6.4933   -0.1166   -0.3899 C.ar    1  UNL1       -0.0520
     21 C          -5.7260   -1.2469   -0.6204 C.ar    1  UNL1        0.0000
     22 C          -6.2003   -2.4683   -1.0221 C.ar    1  UNL1        0.0094
     23 N          -5.1091   -3.3039   -1.1320 N.ar    1  UNL1       -0.3659
     24 C          -3.9517   -2.6260   -0.8044 C.ar    1  UNL1        0.0100
     25 C          -4.3111   -1.3394   -0.4814 C.ar    1  UNL1        0.0071
     26 C          -3.4706   -0.2732   -0.0814 C.ar    1  UNL1       -0.0081
     27 C          -2.0647   -0.3130    0.0717 C.ar    1  UNL1       -0.0436
     28 C          -1.3842    0.8442    0.4785 C.ar    1  UNL1        0.0088
     29 C           0.0275    0.8461    0.6453 C.ar    1  UNL1        0.0569
     30 N           0.9899   -0.1333    0.4773 N.ar    1  UNL1       -0.3536
     31 C           4.4964   -0.2925   -0.2599 C.ar    1  UNL1       -0.0127
     32 C           4.7334    0.6883   -1.1447 C.2     1  UNL1       -0.0719
     33 H           6.7531    1.2541   -1.6356 H       1  UNL1        0.0350
     34 H           5.9128    0.3183   -2.9086 H       1  UNL1        0.0350
     35 H           7.4377   -1.3438   -1.4378 H       1  UNL1        0.0581
     36 H           6.4254   -3.1015    0.5289 H       1  UNL1        0.0624
     37 H           4.4976   -3.4242    2.0482 H       1  UNL1        0.0618
     38 H           2.6497   -1.8397    2.1490 H       1  UNL1        0.0624
     39 H           2.9195    2.3615    1.3996 H       1  UNL1        0.0645
     40 H          -4.0656    2.9836    0.7689 H       1  UNL1        0.0630
     41 H          -6.1779    1.9118    0.2206 H       1  UNL1        0.0624
     42 H          -7.5659   -0.0453   -0.4951 H       1  UNL1        0.0624
     43 H          -7.1965   -2.8280   -1.2406 H       1  UNL1        0.0813
     44 H          -5.1511   -4.2749   -1.4130 H       1  UNL1        0.1648
     45 H          -2.9974   -3.1321   -0.8372 H       1  UNL1        0.0813
     46 H          -1.5354   -1.2379   -0.1282 H       1  UNL1        0.0631
     47 H           0.8042   -1.0759    0.1648 H       1  UNL1        0.1659
     48 H           4.0909    1.5320   -1.3453 H       1  UNL1        0.0581
@<TRIPOS>BOND
     1     1     2    1
     2     2     3    2
     3     3     4   ar
     4     4     5   ar
     5     5     6   ar
     6     6     7   ar
     7     7     8    1
     8     8     9   ar
     9     9    10   ar
    10    10    11   ar
    11    11    12   ar
    12    12    13   ar
    13    13    14   ar
    14    14    15   ar
    15    15    16   ar
    16    16    17   ar
    17    17    18   ar
    18    18    19   ar
    19    19    20   ar
    20    20    21   ar
    21    21    22   ar
    22    22    23   ar
    23    23    24   ar
    24    24    25   ar
    25    25    26   ar
    26    26    27   ar
    27    27    28   ar
    28    28    29   ar
    29    29    30   ar
    30     7    31   ar
    31    31    32    2
    32    32     1    1
    33    31     3   ar
    34    30     8   ar
    35    29    10   ar
    36    15    11   ar
    37    28    16   ar
    38    26    18   ar
    39    25    21   ar
    40     1    33    1
    41     1    34    1
    42     2    35    1
    43     4    36    1
    44     5    37    1
    45     6    38    1
    46     9    39    1
    47    17    40    1
    48    19    41    1
    49    20    42    1
    50    22    43    1
    51    23    44    1
    52    24    45    1
    53    27    46    1
    54    30    47    1
    55    32    48    1
