@<TRIPOS>MOLECULE
*****
 41 46 0 0 0
SMALL
GASTEIGER

@<TRIPOS>ATOM
      1 C           5.6480   -2.2251    0.4697 C.3     1  UNL1       -0.0148
      2 C           6.5650   -1.0489    0.2807 C.2     1  UNL1       -0.0725
      3 C           5.8298    0.0599    0.1272 C.ar    1  UNL1       -0.0212
      4 C           6.2487    1.4207   -0.0924 C.ar    1  UNL1       -0.0543
      5 C           5.2908    2.3587   -0.2283 C.ar    1  UNL1       -0.0606
      6 C           3.8617    2.0312   -0.1539 C.ar    1  UNL1       -0.0529
      7 C           3.3993    0.7725    0.0607 C.ar    1  UNL1       -0.0039
      8 C           1.9829    0.5856    0.1172 C.ar    1  UNL1        0.0210
      9 C           1.0443    0.7496   -0.8844 C.ar    1  UNL1       -0.0392
     10 C          -0.3008    0.4795   -0.4660 C.ar    1  UNL1       -0.0096
     11 C          -1.5179    0.5301   -1.1870 C.ar    1  UNL1       -0.0457
     12 C          -2.7429    0.2212   -0.5687 C.ar    1  UNL1       -0.0152
     13 C          -3.9525    0.2713   -1.2842 C.ar    1  UNL1       -0.0280
     14 C          -5.1749   -0.0280   -0.6992 C.ar    1  UNL1        0.0716
     15 N          -6.2968    0.0389   -1.4386 N.ar    1  UNL1       -0.2550
     16 C          -7.4708   -0.2585   -0.8394 C.ar    1  UNL1        0.0283
     17 C          -7.5873   -0.6271    0.4868 C.ar    1  UNL1       -0.0430
     18 C          -6.4266   -0.6952    1.2473 C.ar    1  UNL1       -0.0511
     19 C          -5.1899   -0.3937    0.6605 C.ar    1  UNL1        0.0010
     20 C          -3.9899   -0.4491    1.3910 C.ar    1  UNL1       -0.0448
     21 C          -2.7616   -0.1440    0.7872 C.ar    1  UNL1       -0.0161
     22 C          -1.5619   -0.1991    1.5158 C.ar    1  UNL1       -0.0397
     23 C          -0.3459    0.1140    0.8770 C.ar    1  UNL1        0.0205
     24 S           1.2239    0.1090    1.5799 S.2     1  UNL1       -0.0882
     25 C           4.4095   -0.2729    0.2037 C.ar    1  UNL1       -0.0136
     26 C           4.2845   -1.5956    0.3951 C.2     1  UNL1       -0.0719
     27 H           5.8101   -2.6985    1.4424 H       1  UNL1        0.0350
     28 H           5.7846   -2.9618   -0.3274 H       1  UNL1        0.0350
     29 H           7.6420   -1.1079    0.2680 H       1  UNL1        0.0581
     30 H           7.3031    1.6630   -0.1455 H       1  UNL1        0.0624
     31 H           5.5552    3.3984   -0.3949 H       1  UNL1        0.0618
     32 H           3.1791    2.8701   -0.2675 H       1  UNL1        0.0624
     33 H           1.3112    1.0479   -1.8915 H       1  UNL1        0.0635
     34 H          -1.4939    0.8138   -2.2370 H       1  UNL1        0.0630
     35 H          -3.9508    0.5529   -2.3354 H       1  UNL1        0.0645
     36 H          -8.3454   -0.1892   -1.4801 H       1  UNL1        0.0830
     37 H          -8.5555   -0.8554    0.9172 H       1  UNL1        0.0633
     38 H          -6.4902   -0.9826    2.2935 H       1  UNL1        0.0625
     39 H          -4.0164   -0.7334    2.4414 H       1  UNL1        0.0630
     40 H          -1.5602   -0.4800    2.5659 H       1  UNL1        0.0635
     41 H           3.3585   -2.1425    0.4838 H       1  UNL1        0.0581
@<TRIPOS>BOND
     1     1     2    1
     2     2     3    2
     3     3     4   ar
     4     4     5   ar
     5     5     6   ar
     6     6     7   ar
     7     7     8    1
     8     8     9   ar
     9     9    10   ar
    10    10    11   ar
    11    11    12   ar
    12    12    13   ar
    13    13    14   ar
    14    14    15   ar
    15    15    16   ar
    16    16    17   ar
    17    17    18   ar
    18    18    19   ar
    19    19    20   ar
    20    20    21   ar
    21    21    22   ar
    22    22    23   ar
    23    23    24   ar
    24     7    25   ar
    25    25    26    2
    26    26     1    1
    27    25     3   ar
    28    24     8   ar
    29    23    10   ar
    30    21    12   ar
    31    19    14   ar
    32     1    27    1
    33     1    28    1
    34     2    29    1
    35     4    30    1
    36     5    31    1
    37     6    32    1
    38     9    33    1
    39    11    34    1
    40    13    35    1
    41    16    36    1
    42    17    37    1
    43    18    38    1
    44    20    39    1
    45    22    40    1
    46    26    41    1
