@<TRIPOS>MOLECULE
*****
 45 51 0 0 0
SMALL
GASTEIGER

@<TRIPOS>ATOM
      1 C           5.4093    0.1263   -2.1048 C.3     1  UNL1       -0.0148
      2 C           6.5298    0.0114   -1.1107 C.2     1  UNL1       -0.0725
      3 C           6.0223    0.0531    0.1279 C.ar    1  UNL1       -0.0211
      4 C           6.6974   -0.0131    1.3976 C.ar    1  UNL1       -0.0543
      5 C           5.9436    0.0588    2.5112 C.ar    1  UNL1       -0.0605
      6 C           4.4824    0.1948    2.4582 C.ar    1  UNL1       -0.0505
      7 C           3.7777    0.2654    1.2981 C.ar    1  UNL1        0.0247
      8 C           2.3466    0.3831    1.3600 C.ar    1  UNL1        0.1368
      9 C           1.5241    0.9206    2.3525 C.ar    1  UNL1       -0.0080
     10 C           0.1756    0.7993    1.9349 C.ar    1  UNL1        0.0243
     11 C          -1.0808    1.1307    2.4501 C.ar    1  UNL1       -0.0079
     12 C          -2.2086    0.8300    1.6916 C.ar    1  UNL1        0.1371
     13 O          -3.4879    1.0887    2.0568 O.2     1  UNL1       -0.4548
     14 C          -4.2864    0.6460    1.0504 C.ar    1  UNL1        0.1369
     15 C          -5.6747    0.7384    1.0613 C.ar    1  UNL1       -0.0181
     16 C          -6.3488    0.2353   -0.0525 C.ar    1  UNL1       -0.0505
     17 C          -5.6608   -0.3367   -1.1317 C.ar    1  UNL1       -0.0171
     18 C          -6.3648   -0.8349   -2.2387 C.ar    1  UNL1       -0.0540
     19 C          -5.6916   -1.4070   -3.3192 C.ar    1  UNL1       -0.0612
     20 C          -4.3032   -1.4904   -3.3105 C.ar    1  UNL1       -0.0611
     21 C          -3.5793   -1.0020   -2.2213 C.ar    1  UNL1       -0.0533
     22 C          -4.2397   -0.4195   -1.1184 C.ar    1  UNL1       -0.0065
     23 C          -3.5331    0.0922    0.0160 C.ar    1  UNL1        0.0357
     24 C          -2.1653    0.2158    0.4418 C.ar    1  UNL1        0.0320
     25 C          -0.8963   -0.1106   -0.0659 C.ar    1  UNL1       -0.0074
     26 C           0.2290    0.1913    0.6946 C.ar    1  UNL1        0.1365
     27 O           1.5144   -0.0554    0.3450 O.2     1  UNL1       -0.4548
     28 C           4.5681    0.1914    0.0674 C.ar    1  UNL1       -0.0111
     29 C           4.1981    0.2407   -1.2225 C.2     1  UNL1       -0.0719
     30 H           5.3520   -0.7635   -2.7385 H       1  UNL1        0.0350
     31 H           5.5268    1.0173   -2.7286 H       1  UNL1        0.0350
     32 H           7.5721   -0.0852   -1.3713 H       1  UNL1        0.0581
     33 H           7.7749   -0.1159    1.4366 H       1  UNL1        0.0624
     34 H           6.4047    0.0122    3.4931 H       1  UNL1        0.0618
     35 H           3.9929    0.2160    3.4277 H       1  UNL1        0.0625
     36 H           1.8670    1.3637    3.2769 H       1  UNL1        0.0661
     37 H          -1.1853    1.6110    3.4174 H       1  UNL1        0.0661
     38 H          -6.2018    1.1812    1.8979 H       1  UNL1        0.0655
     39 H          -7.4358    0.2962   -0.0675 H       1  UNL1        0.0625
     40 H          -7.4512   -0.7821   -2.2703 H       1  UNL1        0.0624
     41 H          -6.2537   -1.7879   -4.1682 H       1  UNL1        0.0618
     42 H          -3.7804   -1.9366   -4.1527 H       1  UNL1        0.0618
     43 H          -2.4994   -1.0848   -2.2502 H       1  UNL1        0.0624
     44 H          -0.7698   -0.5890   -1.0291 H       1  UNL1        0.0662
     45 H           3.1898    0.3459   -1.5923 H       1  UNL1        0.0581
@<TRIPOS>BOND
     1     1     2    1
     2     2     3    2
     3     3     4   ar
     4     4     5   ar
     5     5     6   ar
     6     6     7   ar
     7     7     8    1
     8     8     9   ar
     9     9    10   ar
    10    10    11   ar
    11    11    12   ar
    12    12    13   ar
    13    13    14   ar
    14    14    15   ar
    15    15    16   ar
    16    16    17   ar
    17    17    18   ar
    18    18    19   ar
    19    19    20   ar
    20    20    21   ar
    21    21    22   ar
    22    22    23   ar
    23    23    24   ar
    24    24    25   ar
    25    25    26   ar
    26    26    27   ar
    27     7    28   ar
    28    28    29    2
    29    29     1    1
    30    28     3   ar
    31    27     8   ar
    32    26    10   ar
    33    24    12   ar
    34    23    14   ar
    35    22    17   ar
    36     1    30    1
    37     1    31    1
    38     2    32    1
    39     4    33    1
    40     5    34    1
    41     6    35    1
    42     9    36    1
    43    11    37    1
    44    15    38    1
    45    16    39    1
    46    18    40    1
    47    19    41    1
    48    20    42    1
    49    21    43    1
    50    25    44    1
    51    29    45    1
