@<TRIPOS>MOLECULE
*****
 38 43 0 0 0
SMALL
GASTEIGER

@<TRIPOS>ATOM
      1 C          -5.0769    1.9287    0.2092 C.3     1  UNL1       -0.0148
      2 C          -5.8716    0.6744    0.4434 C.2     1  UNL1       -0.0725
      3 C          -5.0434   -0.3779    0.4318 C.ar    1  UNL1       -0.0212
      4 C          -5.3274   -1.7770    0.6236 C.ar    1  UNL1       -0.0543
      5 C          -4.2937   -2.6400    0.5726 C.ar    1  UNL1       -0.0606
      6 C          -2.9169   -2.1957    0.3227 C.ar    1  UNL1       -0.0529
      7 C          -2.5784   -0.8930    0.1401 C.ar    1  UNL1       -0.0039
      8 C          -1.2104   -0.5714   -0.1329 C.ar    1  UNL1        0.0211
      9 C          -0.6801    0.0306   -1.2569 C.ar    1  UNL1       -0.0391
     10 C           0.7406    0.2267   -1.1996 C.ar    1  UNL1       -0.0081
     11 C           1.6158    0.7989   -2.1596 C.ar    1  UNL1       -0.0527
     12 C           2.9838    0.8989   -1.9086 C.ar    1  UNL1       -0.0484
     13 C           3.4829    0.4257   -0.6927 C.ar    1  UNL1        0.0443
     14 C           4.8351    0.4701   -0.3248 C.ar    1  UNL1        0.1454
     15 O           5.8624    0.9700   -1.0739 O.2     1  UNL1       -0.4622
     16 C           6.9979    0.8171   -0.3448 C.ar    1  UNL1        0.0932
     17 C           6.7207    0.2253    0.8657 C.ar    1  UNL1       -0.0146
     18 C           5.3189   -0.0045    0.8893 C.ar    1  UNL1        0.0388
     19 C           4.4091   -0.5563    1.7934 C.ar    1  UNL1        0.0391
     20 N           3.0888   -0.6233    1.4857 N.ar    1  UNL1       -0.2530
     21 C           2.6578   -0.1473    0.2879 C.ar    1  UNL1        0.0888
     22 C           1.2723   -0.2378    0.0109 C.ar    1  UNL1        0.0459
     23 S           0.0226   -0.8832    1.0160 S.2     1  UNL1       -0.0861
     24 C          -3.6747    0.0716    0.1912 C.ar    1  UNL1       -0.0136
     25 C          -3.6735    1.4080    0.0637 C.2     1  UNL1       -0.0719
     26 H          -5.4039    2.4376   -0.7024 H       1  UNL1        0.0350
     27 H          -5.1568    2.6097    1.0616 H       1  UNL1        0.0350
     28 H          -6.9381    0.6456    0.6025 H       1  UNL1        0.0581
     29 H          -6.3428   -2.1059    0.8081 H       1  UNL1        0.0624
     30 H          -4.4541   -3.7043    0.7151 H       1  UNL1        0.0618
     31 H          -2.1695   -2.9845    0.2802 H       1  UNL1        0.0624
     32 H          -1.2915    0.3195   -2.1040 H       1  UNL1        0.0635
     33 H           1.2161    1.1636   -3.1036 H       1  UNL1        0.0624
     34 H           3.6468    1.3380   -2.6496 H       1  UNL1        0.0625
     35 H           7.9047    1.1719   -0.8151 H       1  UNL1        0.1030
     36 H           7.4399   -0.0117    1.6369 H       1  UNL1        0.0655
     37 H           4.6969   -0.9500    2.7617 H       1  UNL1        0.0837
     38 H          -2.8094    2.0316   -0.1061 H       1  UNL1        0.0581
@<TRIPOS>BOND
     1     1     2    1
     2     2     3    2
     3     3     4   ar
     4     4     5   ar
     5     5     6   ar
     6     6     7   ar
     7     7     8    1
     8     8     9   ar
     9     9    10   ar
    10    10    11   ar
    11    11    12   ar
    12    12    13   ar
    13    13    14   ar
    14    14    15   ar
    15    15    16   ar
    16    16    17   ar
    17    17    18   ar
    18    18    19   ar
    19    19    20   ar
    20    20    21   ar
    21    21    22   ar
    22    22    23   ar
    23     7    24   ar
    24    24    25    2
    25    25     1    1
    26    24     3   ar
    27    23     8   ar
    28    22    10   ar
    29    21    13   ar
    30    18    14   ar
    31     1    26    1
    32     1    27    1
    33     2    28    1
    34     4    29    1
    35     5    30    1
    36     6    31    1
    37     9    32    1
    38    11    33    1
    39    12    34    1
    40    16    35    1
    41    17    36    1
    42    19    37    1
    43    25    38    1
