@<TRIPOS>MOLECULE
*****
 46 52 0 0 0
SMALL
GASTEIGER

@<TRIPOS>ATOM
      1 C          -5.8796    2.2703   -1.3916 C.3     1  UNL1       -0.0148
      2 C          -6.8031    1.1948   -0.8898 C.2     1  UNL1       -0.0725
      3 C          -6.0934    0.2962   -0.1954 C.ar    1  UNL1       -0.0212
      4 C          -6.5245   -0.9054    0.4723 C.ar    1  UNL1       -0.0543
      5 C          -5.5898   -1.6425    1.1045 C.ar    1  UNL1       -0.0606
      6 C          -4.1739   -1.2537    1.1300 C.ar    1  UNL1       -0.0520
      7 C          -3.7017   -0.1386    0.5164 C.ar    1  UNL1        0.0057
      8 C          -2.3152    0.1528    0.6184 C.ar    1  UNL1        0.0481
      9 C          -1.6017    1.2027    1.1567 C.ar    1  UNL1       -0.0272
     10 C          -0.2201    0.9535    0.9327 C.ar    1  UNL1        0.0190
     11 C           0.9552    1.6342    1.2468 C.ar    1  UNL1        0.0375
     12 N           2.1643    1.1331    0.8855 N.ar    1  UNL1       -0.2535
     13 C           2.2823   -0.0368    0.2094 C.ar    1  UNL1        0.0841
     14 C           1.1360   -0.7753   -0.1411 C.ar    1  UNL1        0.0430
     15 C           1.2597   -1.9799   -0.8388 C.ar    1  UNL1        0.0394
     16 N           2.4376   -2.5070   -1.2137 N.ar    1  UNL1       -0.2542
     17 C           3.5427   -1.8020   -0.8793 C.ar    1  UNL1        0.0736
     18 C           4.8103   -2.4325   -1.3194 C.ar    1  UNL1       -0.0351
     19 C           6.0092   -1.8755   -1.0755 C.ar    1  UNL1       -0.0523
     20 C           6.0574   -0.6273   -0.3642 C.ar    1  UNL1       -0.0210
     21 C           7.1330    0.0929   -0.0192 C.2     1  UNL1       -0.0725
     22 C           6.6895    1.3250    0.7136 C.3     1  UNL1       -0.0148
     23 C           5.1957    1.1757    0.7215 C.2     1  UNL1       -0.0718
     24 C           4.8417    0.0412    0.0942 C.ar    1  UNL1       -0.0106
     25 C           3.5206   -0.5718   -0.1740 C.ar    1  UNL1        0.0338
     26 C          -0.1214   -0.2511    0.2392 C.ar    1  UNL1        0.0591
     27 N          -1.4081   -0.7113    0.0535 N.ar    1  UNL1       -0.3535
     28 C          -4.6864    0.6864   -0.1756 C.ar    1  UNL1       -0.0127
     29 C          -4.5415    1.8270   -0.8678 C.2     1  UNL1       -0.0719
     30 H          -6.1566    3.2477   -0.9859 H       1  UNL1        0.0350
     31 H          -5.8801    2.3101   -2.4848 H       1  UNL1        0.0350
     32 H          -7.8662    1.1669   -1.0714 H       1  UNL1        0.0581
     33 H          -7.5695   -1.1902    0.4576 H       1  UNL1        0.0624
     34 H          -5.8658   -2.5538    1.6263 H       1  UNL1        0.0618
     35 H          -3.5173   -1.9093    1.6966 H       1  UNL1        0.0624
     36 H          -2.0311    2.0575    1.6637 H       1  UNL1        0.0645
     37 H           0.9675    2.5765    1.7828 H       1  UNL1        0.0836
     38 H           0.3961   -2.5718   -1.1243 H       1  UNL1        0.0837
     39 H           4.7239   -3.3729   -1.8522 H       1  UNL1        0.0639
     40 H           6.9293   -2.3459   -1.4023 H       1  UNL1        0.0624
     41 H           8.1621   -0.1564   -0.2262 H       1  UNL1        0.0581
     42 H           6.9922    2.2312    0.1809 H       1  UNL1        0.0350
     43 H           7.0890    1.3436    1.7318 H       1  UNL1        0.0350
     44 H           4.5271    1.8923    1.1734 H       1  UNL1        0.0581
     45 H          -1.6595   -1.5569   -0.4396 H       1  UNL1        0.1659
     46 H          -3.6160    2.3563   -1.0347 H       1  UNL1        0.0581
@<TRIPOS>BOND
     1     1     2    1
     2     2     3    2
     3     3     4   ar
     4     4     5   ar
     5     5     6   ar
     6     6     7   ar
     7     7     8    1
     8     8     9   ar
     9     9    10   ar
    10    10    11   ar
    11    11    12   ar
    12    12    13   ar
    13    13    14   ar
    14    14    15   ar
    15    15    16   ar
    16    16    17   ar
    17    17    18   ar
    18    18    19   ar
    19    19    20   ar
    20    20    21    2
    21    21    22    1
    22    22    23    1
    23    23    24    2
    24    24    25   ar
    25    14    26   ar
    26    26    27   ar
    27     7    28   ar
    28    28    29    2
    29    29     1    1
    30    28     3   ar
    31    27     8   ar
    32    26    10   ar
    33    25    13   ar
    34    25    17   ar
    35    24    20   ar
    36     1    30    1
    37     1    31    1
    38     2    32    1
    39     4    33    1
    40     5    34    1
    41     6    35    1
    42     9    36    1
    43    11    37    1
    44    15    38    1
    45    18    39    1
    46    19    40    1
    47    21    41    1
    48    22    42    1
    49    22    43    1
    50    23    44    1
    51    27    45    1
    52    29    46    1
