@<TRIPOS>MOLECULE
*****
 45 51 0 0 0
SMALL
GASTEIGER

@<TRIPOS>ATOM
      1 C           5.1103    2.6190   -1.1695 C.3     1  UNL1        0.0000
      2 C           6.2106    1.9382   -0.4045 C.2     1  UNL1        0.0000
      3 C           5.7282    0.8225    0.1575 C.ar    1  UNL1        0.0000
      4 C           6.3961   -0.1633    0.9683 C.ar    1  UNL1        0.0000
      5 C           5.6732   -1.2150    1.4008 C.ar    1  UNL1        0.0000
      6 C           4.2501   -1.3703    1.0761 C.ar    1  UNL1        0.0000
      7 C           3.5573   -0.4742    0.3267 C.ar    1  UNL1        0.0000
      8 C           2.1718   -0.7370    0.0899 C.ar    1  UNL1        0.0000
      9 C           1.5900   -1.7873   -0.5850 C.ar    1  UNL1        0.0000
     10 C           0.1673   -1.7203   -0.6112 C.ar    1  UNL1        0.0000
     11 N          -0.6014   -2.6517   -1.2268 N.ar    1  UNL1        0.0000
     12 C          -1.9281   -2.4494   -1.1674 C.ar    1  UNL1        0.0000
     13 C          -2.5722   -1.3886   -0.5402 C.ar    1  UNL1        0.0000
     14 C          -4.0476   -1.2497   -0.5291 C.ar    1  UNL1        0.0000
     15 SI         -5.2751   -2.4360   -1.3316 Si      1  UNL1        0.0000
     16 C          -6.6571   -1.3509   -0.7267 C.2     1  UNL1        0.0000
     17 C          -6.1716   -0.2983   -0.0459 C.2     1  UNL1        0.0000
     18 C          -4.7090   -0.2269    0.0740 C.ar    1  UNL1        0.0000
     19 C          -3.9296    0.7977    0.7526 C.ar    1  UNL1        0.0000
     20 C          -4.4667    1.8598    1.3880 C.2     1  UNL1        0.0000
     21 SI         -3.1631    2.9478    2.1347 Si      1  UNL1        0.0000
     22 C          -1.8866    1.7621    1.4599 C.2     1  UNL1        0.0000
     23 C          -2.4379    0.7291    0.7861 C.ar    1  UNL1        0.0000
     24 C          -1.7585   -0.4158    0.1064 C.ar    1  UNL1        0.0000
     25 C          -0.3511   -0.6044    0.0581 C.ar    1  UNL1        0.0000
     26 S           0.9671    0.3133    0.6957 S.2     1  UNL1        0.0000
     27 C           4.3120    0.6746   -0.1695 C.ar    1  UNL1        0.0000
     28 C           3.9380    1.7043   -0.9455 C.2     1  UNL1        0.0000
     29 H           5.3563    2.6890   -2.2332 H       1  UNL1        0.0000
     30 H           4.9120    3.6177   -0.7695 H       1  UNL1        0.0000
     31 H           7.2242    2.3010   -0.3361 H       1  UNL1        0.0000
     32 H           7.4458   -0.0484    1.2093 H       1  UNL1        0.0000
     33 H           6.1309   -1.9854    2.0139 H       1  UNL1        0.0000
     34 H           3.7673   -2.2528    1.4893 H       1  UNL1        0.0000
     35 H           2.1558   -2.5811   -1.0559 H       1  UNL1        0.0000
     36 H          -2.4798   -3.2314   -1.6812 H       1  UNL1        0.0000
     37 H          -5.1526   -2.4511   -2.8096 H       1  UNL1        0.0000
     38 H          -5.2617   -3.7726   -0.6889 H       1  UNL1        0.0000
     39 H          -7.6950   -1.5729   -0.9184 H       1  UNL1        0.0000
     40 H          -6.8078    0.4594    0.3935 H       1  UNL1        0.0000
     41 H          -5.5106    2.1070    1.4892 H       1  UNL1        0.0000
     42 H          -3.2052    2.9545    3.6167 H       1  UNL1        0.0000
     43 H          -3.0951    4.2815    1.4904 H       1  UNL1        0.0000
     44 H          -0.8556    1.9870    1.6547 H       1  UNL1        0.0000
     45 H           2.9548    1.8692   -1.3583 H       1  UNL1        0.0000
@<TRIPOS>BOND
     1     1     2    1
     2     2     3    2
     3     3     4   ar
     4     4     5   ar
     5     5     6   ar
     6     6     7   ar
     7     7     8    1
     8     8     9   ar
     9     9    10   ar
    10    10    11   ar
    11    11    12   ar
    12    12    13   ar
    13    13    14   ar
    14    14    15    1
    15    15    16    1
    16    16    17    2
    17    17    18    1
    18    18    19   ar
    19    19    20    2
    20    20    21    1
    21    21    22    1
    22    22    23    2
    23    23    24   ar
    24    24    25   ar
    25    25    26   ar
    26     7    27   ar
    27    27    28    2
    28    28     1    1
    29    27     3   ar
    30    26     8   ar
    31    25    10   ar
    32    24    13   ar
    33    18    14   ar
    34    23    19   ar
    35     1    29    1
    36     1    30    1
    37     2    31    1
    38     4    32    1
    39     5    33    1
    40     6    34    1
    41     9    35    1
    42    12    36    1
    43    15    37    1
    44    15    38    1
    45    16    39    1
    46    17    40    1
    47    20    41    1
    48    21    42    1
    49    21    43    1
    50    22    44    1
    51    28    45    1
