@<TRIPOS>MOLECULE
*****
 45 51 0 0 0
SMALL
GASTEIGER

@<TRIPOS>ATOM
      1 C          -5.6923    0.3072    2.0765 C.3     1  UNL1        0.0000
      2 C          -6.4041   -0.0809    0.8097 C.2     1  UNL1        0.0000
      3 C          -5.5365   -0.0430   -0.2097 C.ar    1  UNL1        0.0000
      4 C          -5.7390   -0.3309   -1.6068 C.ar    1  UNL1        0.0000
      5 C          -4.6797   -0.2144   -2.4319 C.ar    1  UNL1        0.0000
      6 C          -3.3543    0.1936   -1.9489 C.ar    1  UNL1        0.0000
      7 C          -3.0948    0.4727   -0.6457 C.ar    1  UNL1        0.0000
      8 C          -1.7799    0.8752   -0.2890 C.ar    1  UNL1        0.0000
      9 C          -1.2565    2.0103    0.2941 C.ar    1  UNL1        0.0000
     10 C           0.1381    1.8182    0.4272 C.ar    1  UNL1        0.0000
     11 N           1.0530    2.6723    0.9385 N.ar    1  UNL1        0.0000
     12 C           2.3267    2.2132    0.9407 C.ar    1  UNL1        0.0000
     13 C           2.7855    0.9703    0.4795 C.ar    1  UNL1        0.0000
     14 C           4.1711    0.5541    0.5185 C.ar    1  UNL1        0.0000
     15 SI          5.6985    1.4955    1.1614 Si      1  UNL1        0.0000
     16 C           6.7793    0.0258    0.7020 C.2     1  UNL1        0.0000
     17 C           6.0881   -0.9918    0.1579 C.2     1  UNL1        0.0000
     18 C           4.6614   -0.7088    0.0550 C.ar    1  UNL1        0.0000
     19 C           3.6558   -1.5196   -0.4498 C.ar    1  UNL1        0.0000
     20 C           3.7834   -2.7822   -0.9694 C.ar    1  UNL1        0.0000
     21 N           2.5233   -3.1899   -1.3411 N.ar    1  UNL1        0.0000
     22 C           1.5972   -2.2015   -1.0651 C.ar    1  UNL1        0.0000
     23 C           2.2711   -1.1411   -0.5052 C.ar    1  UNL1        0.0000
     24 C           1.7755    0.1001   -0.0518 C.ar    1  UNL1        0.0000
     25 C           0.4520    0.5533   -0.0664 C.ar    1  UNL1        0.0000
     26 N          -0.7354    0.0003   -0.4838 N.ar    1  UNL1        0.0000
     27 C          -4.2202    0.3613    0.2764 C.ar    1  UNL1        0.0000
     28 C          -4.2895    0.5646    1.6011 C.2     1  UNL1        0.0000
     29 H          -5.7168   -0.5074    2.8062 H       1  UNL1        0.0000
     30 H          -6.1311    1.2088    2.5140 H       1  UNL1        0.0000
     31 H          -7.4484   -0.3445    0.7506 H       1  UNL1        0.0000
     32 H          -6.7179   -0.6260   -1.9643 H       1  UNL1        0.0000
     33 H          -4.7829   -0.4136   -3.4942 H       1  UNL1        0.0000
     34 H          -2.5840    0.2844   -2.7107 H       1  UNL1        0.0000
     35 H          -1.8113    2.8896    0.5901 H       1  UNL1        0.0000
     36 H           3.0187    2.9393    1.3607 H       1  UNL1        0.0000
     37 H           5.6410    1.7206    2.6267 H       1  UNL1        0.0000
     38 H           5.9994    2.6972    0.3450 H       1  UNL1        0.0000
     39 H           7.8435    0.0501    0.8797 H       1  UNL1        0.0000
     40 H           6.5200   -1.9252   -0.1737 H       1  UNL1        0.0000
     41 H           4.6374   -3.4298   -1.1118 H       1  UNL1        0.0000
     42 H           2.3056   -4.0864   -1.7570 H       1  UNL1        0.0000
     43 H           0.5619   -2.3818   -1.3046 H       1  UNL1        0.0000
     44 H          -0.8389   -0.9258   -0.8670 H       1  UNL1        0.0000
     45 H          -3.4743    0.8664    2.2410 H       1  UNL1        0.0000
@<TRIPOS>BOND
     1     1     2    1
     2     2     3    2
     3     3     4   ar
     4     4     5   ar
     5     5     6   ar
     6     6     7   ar
     7     7     8    1
     8     8     9   ar
     9     9    10   ar
    10    10    11   ar
    11    11    12   ar
    12    12    13   ar
    13    13    14   ar
    14    14    15    1
    15    15    16    1
    16    16    17    2
    17    17    18    1
    18    18    19   ar
    19    19    20   ar
    20    20    21   ar
    21    21    22   ar
    22    22    23   ar
    23    23    24   ar
    24    24    25   ar
    25    25    26   ar
    26     7    27   ar
    27    27    28    2
    28    28     1    1
    29    27     3   ar
    30    26     8   ar
    31    25    10   ar
    32    24    13   ar
    33    18    14   ar
    34    23    19   ar
    35     1    29    1
    36     1    30    1
    37     2    31    1
    38     4    32    1
    39     5    33    1
    40     6    34    1
    41     9    35    1
    42    12    36    1
    43    15    37    1
    44    15    38    1
    45    16    39    1
    46    17    40    1
    47    20    41    1
    48    21    42    1
    49    22    43    1
    50    26    44    1
    51    28    45    1
