@<TRIPOS>MOLECULE
*****
 43 49 0 0 0
SMALL
GASTEIGER

@<TRIPOS>ATOM
      1 C          -5.5772    0.7361    2.1581 C.3     1  UNL1        0.0000
      2 C          -6.4078    0.3673    0.9605 C.2     1  UNL1        0.0000
      3 C          -5.6036    0.2051   -0.0978 C.ar    1  UNL1        0.0000
      4 C          -5.9262   -0.1554   -1.4546 C.ar    1  UNL1        0.0000
      5 C          -4.9114   -0.2576   -2.3352 C.ar    1  UNL1        0.0000
      6 C          -3.5162   -0.0086   -1.9517 C.ar    1  UNL1        0.0000
      7 C          -3.1419    0.3273   -0.6899 C.ar    1  UNL1        0.0000
      8 C          -1.7575    0.5780   -0.4283 C.ar    1  UNL1        0.0000
      9 C          -1.1647    1.7424    0.0091 C.ar    1  UNL1        0.0000
     10 C           0.2437    1.6281    0.1885 C.ar    1  UNL1        0.0000
     11 N           1.0203    2.6623    0.6082 N.ar    1  UNL1        0.0000
     12 C           2.3317    2.4030    0.7289 C.ar    1  UNL1        0.0000
     13 C           2.9202    1.1834    0.4619 C.ar    1  UNL1        0.0000
     14 C           4.3426    0.9524    0.6067 C.ar    1  UNL1        0.0000
     15 O           5.1817    1.9358    1.0167 O.2     1  UNL1        0.0000
     16 C           6.4271    1.3761    1.0394 C.ar    1  UNL1        0.0000
     17 C           6.3828    0.0515    0.6486 C.ar    1  UNL1        0.0000
     18 C           5.0284   -0.2137    0.3704 C.ar    1  UNL1        0.0000
     19 C           4.3032   -1.3551   -0.0680 C.ar    1  UNL1        0.0000
     20 C           4.8239   -2.5664   -0.3400 C.2     1  UNL1        0.0000
     21 SI          3.5072   -3.7583   -0.8782 Si      1  UNL1        0.0000
     22 C           2.2512   -2.3829   -0.6679 C.2     1  UNL1        0.0000
     23 C           2.8095   -1.2249   -0.2524 C.ar    1  UNL1        0.0000
     24 C           2.1219    0.0907    0.0251 C.ar    1  UNL1        0.0000
     25 C           0.7360    0.3474   -0.1097 C.ar    1  UNL1        0.0000
     26 S          -0.5826   -0.6545   -0.5976 S.2     1  UNL1        0.0000
     27 C          -4.2171    0.4477    0.2920 C.ar    1  UNL1        0.0000
     28 C          -4.1812    0.7531    1.5987 C.2     1  UNL1        0.0000
     29 H          -5.6742   -0.0129    2.9495 H       1  UNL1        0.0000
     30 H          -5.8581    1.7204    2.5441 H       1  UNL1        0.0000
     31 H          -7.4803    0.2516    0.9714 H       1  UNL1        0.0000
     32 H          -6.9554   -0.3374   -1.7389 H       1  UNL1        0.0000
     33 H          -5.1023   -0.5273   -3.3695 H       1  UNL1        0.0000
     34 H          -2.7869   -0.0976   -2.7532 H       1  UNL1        0.0000
     35 H          -1.7144    2.6567    0.1946 H       1  UNL1        0.0000
     36 H           2.9286    3.2481    1.0643 H       1  UNL1        0.0000
     37 H           7.2250    2.0367    1.3496 H       1  UNL1        0.0000
     38 H           7.2260   -0.6201    0.5792 H       1  UNL1        0.0000
     39 H           5.8588   -2.8608   -0.2706 H       1  UNL1        0.0000
     40 H           3.6577   -4.1705   -2.2940 H       1  UNL1        0.0000
     41 H           3.3050   -4.8591    0.0935 H       1  UNL1        0.0000
     42 H           1.2252   -2.6132   -0.8846 H       1  UNL1        0.0000
     43 H          -3.2988    0.9750    2.1790 H       1  UNL1        0.0000
@<TRIPOS>BOND
     1     1     2    1
     2     2     3    2
     3     3     4   ar
     4     4     5   ar
     5     5     6   ar
     6     6     7   ar
     7     7     8    1
     8     8     9   ar
     9     9    10   ar
    10    10    11   ar
    11    11    12   ar
    12    12    13   ar
    13    13    14   ar
    14    14    15   ar
    15    15    16   ar
    16    16    17   ar
    17    17    18   ar
    18    18    19   ar
    19    19    20    2
    20    20    21    1
    21    21    22    1
    22    22    23    2
    23    23    24   ar
    24    24    25   ar
    25    25    26   ar
    26     7    27   ar
    27    27    28    2
    28    28     1    1
    29    27     3   ar
    30    26     8   ar
    31    25    10   ar
    32    24    13   ar
    33    18    14   ar
    34    23    19   ar
    35     1    29    1
    36     1    30    1
    37     2    31    1
    38     4    32    1
    39     5    33    1
    40     6    34    1
    41     9    35    1
    42    12    36    1
    43    16    37    1
    44    17    38    1
    45    20    39    1
    46    21    40    1
    47    21    41    1
    48    22    42    1
    49    28    43    1
