@<TRIPOS>MOLECULE
*****
 40 45 0 0 0
SMALL
GASTEIGER

@<TRIPOS>ATOM
      1 SI          1.2783   -2.7249    2.5951 Si      1  UNL1        0.0000
      2 C           2.3560   -1.6612    1.5224 C.2     1  UNL1        0.0000
      3 C           1.6302   -0.8136    0.7637 C.ar    1  UNL1        0.0000
      4 C           2.2093    0.2342   -0.0716 C.ar    1  UNL1        0.0000
      5 C           1.3731    1.1158   -0.6526 C.ar    1  UNL1        0.0000
      6 C          -0.0952    1.0252   -0.5459 C.ar    1  UNL1        0.0000
      7 N          -0.7313    2.0237   -1.2070 N.ar    1  UNL1        0.0000
      8 C          -2.0734    1.9622   -1.2525 C.ar    1  UNL1        0.0000
      9 C          -2.8081    0.9087   -0.7146 C.ar    1  UNL1        0.0000
     10 C          -4.2078    0.8890   -0.8647 C.ar    1  UNL1        0.0000
     11 O          -4.9781    1.8469   -1.4616 O.2     1  UNL1        0.0000
     12 C          -6.2668    1.4252   -1.3889 C.ar    1  UNL1        0.0000
     13 C          -6.3416    0.2046   -0.7596 C.ar    1  UNL1        0.0000
     14 C          -5.0109   -0.1510   -0.4171 C.ar    1  UNL1        0.0000
     15 C          -4.3929   -1.2451    0.2011 C.ar    1  UNL1        0.0000
     16 C          -2.9927   -1.2328    0.3672 C.ar    1  UNL1        0.0000
     17 C          -2.1608   -0.1543   -0.0412 C.ar    1  UNL1        0.0000
     18 C          -0.7437   -0.0480    0.1191 C.ar    1  UNL1        0.0000
     19 C           0.1518   -0.9482    0.9098 C.ar    1  UNL1        0.0000
     20 C          -0.2003   -1.8300    1.8709 C.2     1  UNL1        0.0000
     21 C           3.6525    0.4183   -0.3015 C.ar    1  UNL1        0.0000
     22 C           4.3612    1.4618    0.2993 C.ar    1  UNL1        0.0000
     23 C           5.7281    1.5915    0.0645 C.ar    1  UNL1        0.0000
     24 C           6.3442    0.6668   -0.7637 C.ar    1  UNL1        0.0000
     25 N           5.6969   -0.3580   -1.3589 N.ar    1  UNL1        0.0000
     26 C           4.3673   -0.4567   -1.1157 C.ar    1  UNL1        0.0000
     27 H           1.4442   -2.4445    4.0410 H       1  UNL1        0.0000
     28 H           1.3039   -4.1550    2.2059 H       1  UNL1        0.0000
     29 H           3.4312   -1.7144    1.5996 H       1  UNL1        0.0000
     30 H           1.7402    1.9288   -1.2731 H       1  UNL1        0.0000
     31 H          -2.5530    2.7868   -1.7737 H       1  UNL1        0.0000
     32 H          -7.0002    2.0896   -1.8247 H       1  UNL1        0.0000
     33 H          -7.2431   -0.3619   -0.5754 H       1  UNL1        0.0000
     34 H          -4.9749   -2.0991    0.5360 H       1  UNL1        0.0000
     35 H          -2.5596   -2.1326    0.7910 H       1  UNL1        0.0000
     36 H          -1.1710   -2.0504    2.2752 H       1  UNL1        0.0000
     37 H           3.8549    2.1705    0.9498 H       1  UNL1        0.0000
     38 H           6.2986    2.3944    0.5177 H       1  UNL1        0.0000
     39 H           7.4079    0.7277   -0.9761 H       1  UNL1        0.0000
     40 H           3.8756   -1.2899   -1.6112 H       1  UNL1        0.0000
@<TRIPOS>BOND
     1     1     2    1
     2     2     3    2
     3     3     4   ar
     4     4     5   ar
     5     5     6   ar
     6     6     7   ar
     7     7     8   ar
     8     8     9   ar
     9     9    10   ar
    10    10    11   ar
    11    11    12   ar
    12    12    13   ar
    13    13    14   ar
    14    14    15   ar
    15    15    16   ar
    16    16    17   ar
    17    17    18   ar
    18    18    19   ar
    19    19    20    2
    20     4    21    1
    21    21    22   ar
    22    22    23   ar
    23    23    24   ar
    24    24    25   ar
    25    25    26   ar
    26    20     1    1
    27    26    21   ar
    28    19     3   ar
    29    18     6   ar
    30    17     9   ar
    31    14    10   ar
    32     1    27    1
    33     1    28    1
    34     2    29    1
    35     5    30    1
    36     8    31    1
    37    12    32    1
    38    13    33    1
    39    15    34    1
    40    16    35    1
    41    20    36    1
    42    22    37    1
    43    23    38    1
    44    24    39    1
    45    26    40    1
