@<TRIPOS>MOLECULE
*****
 47 54 0 0 0
SMALL
GASTEIGER

@<TRIPOS>ATOM
      1 C           5.4350    0.6598    2.1679 C.3     1  UNL1       -0.0148
      2 C           6.3607    0.6243    0.9832 C.2     1  UNL1       -0.0725
      3 C           5.6424    0.4213   -0.1286 C.ar    1  UNL1       -0.0212
      4 C           6.0703    0.3177   -1.5009 C.ar    1  UNL1       -0.0543
      5 C           5.1255    0.1164   -2.4413 C.ar    1  UNL1       -0.0606
      6 C           3.7012    0.0001   -2.1052 C.ar    1  UNL1       -0.0534
      7 C           3.2387    0.0789   -0.8328 C.ar    1  UNL1       -0.0097
      8 C           1.8008   -0.0467   -0.6035 C.ar    1  UNL1       -0.0031
      9 C           0.8674    0.9718   -0.8815 C.ar    1  UNL1       -0.0103
     10 C          -0.5031    0.7593   -0.6113 C.ar    1  UNL1        0.1376
     11 O          -1.4915    1.6840   -0.8432 O.2     1  UNL1       -0.4527
     12 C          -2.6566    1.1003   -0.4539 C.ar    1  UNL1        0.1606
     13 C          -4.0679    1.7070   -0.5019 C.ar    1  UNL1        0.0906
     14 N          -4.5171    2.9221   -0.9201 N.ar    1  UNL1       -0.3578
     15 C          -5.8919    2.9616   -0.7495 C.ar    1  UNL1        0.0029
     16 C          -6.3161    1.7523   -0.2154 C.ar    1  UNL1       -0.0359
     17 C          -5.1550    0.9996   -0.0757 C.ar    1  UNL1        0.0124
     18 C          -4.8925   -0.3065    0.4029 C.ar    1  UNL1        0.0094
     19 C          -5.8173   -1.1931    0.8756 C.ar    1  UNL1        0.0101
     20 N          -5.1010   -2.3225    1.2214 N.ar    1  UNL1       -0.3659
     21 C          -3.7466   -2.1396    0.9663 C.ar    1  UNL1        0.0101
     22 C          -3.6076   -0.8791    0.4548 C.ar    1  UNL1        0.0115
     23 C          -2.4340   -0.1807    0.0221 C.ar    1  UNL1        0.0398
     24 C          -1.0731   -0.3955   -0.0751 C.ar    1  UNL1        0.0393
     25 C          -0.1494   -1.4393    0.2177 C.ar    1  UNL1        0.0318
     26 C          -0.2825   -2.6883    0.7362 C.ar    1  UNL1        0.1001
     27 O           0.9627   -3.2636    0.7945 O.2     1  UNL1       -0.4698
     28 C           1.8613   -2.3533    0.3064 C.ar    1  UNL1        0.1000
     29 C           1.2153   -1.1958   -0.0633 C.ar    1  UNL1        0.0284
     30 C           4.2276    0.3056    0.2125 C.ar    1  UNL1       -0.0141
     31 C           4.0857    0.4435    1.5395 C.2     1  UNL1       -0.0720
     32 H           5.6714   -0.1399    2.8759 H       1  UNL1        0.0350
     33 H           5.4818    1.6281    2.6747 H       1  UNL1        0.0350
     34 H           7.4309    0.7485    1.0383 H       1  UNL1        0.0581
     35 H           7.1209    0.4032   -1.7502 H       1  UNL1        0.0624
     36 H           5.3978    0.0322   -3.4889 H       1  UNL1        0.0618
     37 H           3.0258   -0.1637   -2.9414 H       1  UNL1        0.0624
     38 H           1.1910    1.9224   -1.2953 H       1  UNL1        0.0661
     39 H          -3.9403    3.6658   -1.2912 H       1  UNL1        0.1654
     40 H          -6.4453    3.8495   -1.0246 H       1  UNL1        0.0807
     41 H          -7.3339    1.4821    0.0287 H       1  UNL1        0.0639
     42 H          -6.8900   -1.1482    1.0022 H       1  UNL1        0.0813
     43 H          -5.5048   -3.1668    1.6059 H       1  UNL1        0.1648
     44 H          -3.0690   -2.9433    1.1871 H       1  UNL1        0.0813
     45 H          -1.0767   -3.3163    1.0972 H       1  UNL1        0.1036
     46 H           2.8913   -2.6833    0.2946 H       1  UNL1        0.1036
     47 H           3.1576    0.4082    2.0892 H       1  UNL1        0.0581
@<TRIPOS>BOND
     1     1     2    1
     2     2     3    2
     3     3     4   ar
     4     4     5   ar
     5     5     6   ar
     6     6     7   ar
     7     7     8    1
     8     8     9   ar
     9     9    10   ar
    10    10    11   ar
    11    11    12   ar
    12    12    13   ar
    13    13    14   ar
    14    14    15   ar
    15    15    16   ar
    16    16    17   ar
    17    17    18   ar
    18    18    19   ar
    19    19    20   ar
    20    20    21   ar
    21    21    22   ar
    22    22    23   ar
    23    23    24   ar
    24    24    25   ar
    25    25    26   ar
    26    26    27   ar
    27    27    28   ar
    28    28    29   ar
    29     7    30   ar
    30    30    31    2
    31    31     1    1
    32    30     3   ar
    33    29     8   ar
    34    24    10   ar
    35    29    25   ar
    36    23    12   ar
    37    17    13   ar
    38    22    18   ar
    39     1    32    1
    40     1    33    1
    41     2    34    1
    42     4    35    1
    43     5    36    1
    44     6    37    1
    45     9    38    1
    46    14    39    1
    47    15    40    1
    48    16    41    1
    49    19    42    1
    50    20    43    1
    51    21    44    1
    52    26    45    1
    53    28    46    1
    54    31    47    1
