@<TRIPOS>MOLECULE
*****
 47 54 0 0 0
SMALL
GASTEIGER

@<TRIPOS>ATOM
      1 C          -5.6029   -3.1627   -0.4077 C.3     1  UNL1       -0.0148
      2 C          -6.7310   -2.1727   -0.4962 C.2     1  UNL1       -0.0725
      3 C          -6.2248   -0.9334   -0.5328 C.ar    1  UNL1       -0.0212
      4 C          -6.8994    0.3363   -0.6257 C.ar    1  UNL1       -0.0543
      5 C          -6.1410    1.4499   -0.6567 C.ar    1  UNL1       -0.0606
      6 C          -4.6752    1.3982   -0.5950 C.ar    1  UNL1       -0.0529
      7 C          -3.9783    0.2368   -0.4972 C.ar    1  UNL1       -0.0038
      8 C          -2.5504    0.3192   -0.4425 C.ar    1  UNL1        0.0216
      9 C          -1.6812    0.7170   -1.4394 C.ar    1  UNL1       -0.0325
     10 C          -0.3237    0.6695   -1.0025 C.ar    1  UNL1        0.0282
     11 S           1.2086    1.0326   -1.7676 S.2     1  UNL1       -0.0870
     12 C           2.1015    0.6200   -0.3361 C.ar    1  UNL1        0.0300
     13 C           1.1884    0.2346    0.6321 C.ar    1  UNL1        0.0133
     14 C           1.6449   -0.1614    1.9245 C.ar    1  UNL1        0.0093
     15 C           0.9839   -0.5780    3.0429 C.ar    1  UNL1        0.0101
     16 N           1.9664   -0.8186    3.9794 N.ar    1  UNL1       -0.3659
     17 C           3.2116   -0.5533    3.4417 C.ar    1  UNL1        0.0100
     18 C           3.0371   -0.1342    2.1384 C.ar    1  UNL1        0.0078
     19 C           4.0603    0.2364    1.2372 C.ar    1  UNL1       -0.0070
     20 C           5.4798    0.2299    1.5585 C.ar    1  UNL1       -0.0527
     21 C           6.4921    0.6009    0.6537 C.ar    1  UNL1       -0.0520
     22 C           5.9483    0.9672   -0.5680 C.ar    1  UNL1        0.0000
     23 C           6.6869    1.3767   -1.6479 C.ar    1  UNL1        0.0094
     24 N           5.7947    1.6480   -2.6571 N.ar    1  UNL1       -0.3659
     25 C           4.5036    1.4151   -2.2279 C.ar    1  UNL1        0.0100
     26 C           4.5556    0.9863   -0.9211 C.ar    1  UNL1        0.0082
     27 C           3.5049    0.6253   -0.0545 C.ar    1  UNL1        0.0062
     28 C          -0.1793    0.2500    0.2933 C.ar    1  UNL1        0.0353
     29 S          -1.7294   -0.0977    1.0123 S.2     1  UNL1       -0.0870
     30 C          -4.7667   -0.9922   -0.4693 C.ar    1  UNL1       -0.0136
     31 C          -4.3871   -2.2779   -0.4025 C.2     1  UNL1       -0.0719
     32 H          -5.6659   -3.7500    0.5131 H       1  UNL1        0.0350
     33 H          -5.5983   -3.8316   -1.2733 H       1  UNL1        0.0350
     34 H          -7.7764   -2.4369   -0.5289 H       1  UNL1        0.0581
     35 H          -7.9809    0.3752   -0.6696 H       1  UNL1        0.0624
     36 H          -6.6019    2.4306   -0.7255 H       1  UNL1        0.0618
     37 H          -4.1672    2.3593   -0.6190 H       1  UNL1        0.0624
     38 H          -1.9947    1.0203   -2.4306 H       1  UNL1        0.0640
     39 H          -0.0555   -0.7328    3.2912 H       1  UNL1        0.0813
     40 H           1.8000   -1.1421    4.9236 H       1  UNL1        0.1648
     41 H           4.0946   -0.6922    4.0497 H       1  UNL1        0.0813
     42 H           5.7904   -0.0785    2.5554 H       1  UNL1        0.0624
     43 H           7.5439    0.5932    0.9002 H       1  UNL1        0.0624
     44 H           7.7504    1.5014   -1.7987 H       1  UNL1        0.0813
     45 H           6.0446    1.9717   -3.5823 H       1  UNL1        0.1648
     46 H           3.6907    1.5857   -2.9166 H       1  UNL1        0.0813
     47 H          -3.3722   -2.6412   -0.3521 H       1  UNL1        0.0581
@<TRIPOS>BOND
     1     1     2    1
     2     2     3    2
     3     3     4   ar
     4     4     5   ar
     5     5     6   ar
     6     6     7   ar
     7     7     8    1
     8     8     9   ar
     9     9    10   ar
    10    10    11   ar
    11    11    12   ar
    12    12    13   ar
    13    13    14   ar
    14    14    15   ar
    15    15    16   ar
    16    16    17   ar
    17    17    18   ar
    18    18    19   ar
    19    19    20   ar
    20    20    21   ar
    21    21    22   ar
    22    22    23   ar
    23    23    24   ar
    24    24    25   ar
    25    25    26   ar
    26    26    27   ar
    27    13    28   ar
    28    28    29   ar
    29     7    30   ar
    30    30    31    2
    31    31     1    1
    32    30     3   ar
    33    29     8   ar
    34    28    10   ar
    35    27    12   ar
    36    18    14   ar
    37    27    19   ar
    38    26    22   ar
    39     1    32    1
    40     1    33    1
    41     2    34    1
    42     4    35    1
    43     5    36    1
    44     6    37    1
    45     9    38    1
    46    15    39    1
    47    16    40    1
    48    17    41    1
    49    20    42    1
    50    21    43    1
    51    23    44    1
    52    24    45    1
    53    25    46    1
    54    31    47    1
