@<TRIPOS>MOLECULE
*****
 32 36 0 0 0
SMALL
GASTEIGER

@<TRIPOS>ATOM
      1 C          -3.8949    2.0760   -1.2927 C.3     1  UNL1        0.0000
      2 C          -4.8090    1.0289   -0.7198 C.2     1  UNL1        0.0000
      3 C          -4.0723    0.0188   -0.2398 C.ar    1  UNL1        0.0000
      4 C          -4.4868   -1.1993    0.4081 C.ar    1  UNL1        0.0000
      5 C          -3.5267   -2.0573    0.8056 C.ar    1  UNL1        0.0000
      6 C          -2.0996   -1.7867    0.5912 C.ar    1  UNL1        0.0000
      7 C          -1.6410   -0.6560   -0.0052 C.ar    1  UNL1        0.0000
      8 C          -0.2286   -0.5053   -0.1941 C.ar    1  UNL1        0.0000
      9 C           0.4584   -0.4457   -1.3939 C.ar    1  UNL1        0.0000
     10 C           1.8591   -0.2687   -1.1906 C.ar    1  UNL1        0.0000
     11 S           3.2579   -0.1256   -2.2540 S.2     1  UNL1        0.0000
     12 C           4.2692    0.0353   -0.9012 C.ar    1  UNL1        0.0000
     13 C           5.6845    0.2091   -0.9014 C.2     1  UNL1        0.0000
     14 C           6.1797    0.3056    0.3518 C.2     1  UNL1        0.0000
     15 SI          4.8023    0.1746    1.6859 Si      1  UNL1        0.0000
     16 C           3.5820   -0.0157    0.2897 C.ar    1  UNL1        0.0000
     17 C           2.1987   -0.1894    0.1370 C.ar    1  UNL1        0.0000
     18 S           0.8124   -0.3271    1.1735 S.2     1  UNL1        0.0000
     19 C          -2.6542    0.2975   -0.4495 C.ar    1  UNL1        0.0000
     20 C          -2.5308    1.4886   -1.0560 C.2     1  UNL1        0.0000
     21 H          -4.0812    2.2193   -2.3611 H       1  UNL1        0.0000
     22 H          -4.0093    3.0283   -0.7665 H       1  UNL1        0.0000
     23 H          -5.8853    1.0991   -0.7015 H       1  UNL1        0.0000
     24 H          -5.5394   -1.4003    0.5659 H       1  UNL1        0.0000
     25 H          -3.7873   -2.9880    1.3004 H       1  UNL1        0.0000
     26 H          -1.4170   -2.5607    0.9335 H       1  UNL1        0.0000
     27 H          -0.0137   -0.5274   -2.3651 H       1  UNL1        0.0000
     28 H           6.2784    0.2563   -1.8056 H       1  UNL1        0.0000
     29 H           7.2091    0.4403    0.6432 H       1  UNL1        0.0000
     30 H           4.9983   -1.0436    2.5103 H       1  UNL1        0.0000
     31 H           4.6928    1.4484    2.4390 H       1  UNL1        0.0000
     32 H          -1.6057    1.9704   -1.3329 H       1  UNL1        0.0000
@<TRIPOS>BOND
     1     1     2    1
     2     2     3    2
     3     3     4   ar
     4     4     5   ar
     5     5     6   ar
     6     6     7   ar
     7     7     8    1
     8     8     9   ar
     9     9    10   ar
    10    10    11   ar
    11    11    12   ar
    12    12    13    1
    13    13    14    2
    14    14    15    1
    15    15    16    1
    16    16    17   ar
    17    17    18   ar
    18     7    19   ar
    19    19    20    2
    20    20     1    1
    21    19     3   ar
    22    18     8   ar
    23    17    10   ar
    24    16    12   ar
    25     1    21    1
    26     1    22    1
    27     2    23    1
    28     4    24    1
    29     5    25    1
    30     6    26    1
    31     9    27    1
    32    13    28    1
    33    14    29    1
    34    15    30    1
    35    15    31    1
    36    20    32    1
