@<TRIPOS>MOLECULE
*****
 45 51 0 0 0
SMALL
GASTEIGER

@<TRIPOS>ATOM
      1 C          -5.3066    1.3056    1.7284 C.3     1  UNL1       -0.0148
      2 C          -6.2231    1.0347    0.5669 C.2     1  UNL1       -0.0725
      3 C          -5.5231    0.4584   -0.4186 C.ar    1  UNL1       -0.0212
      4 C          -5.9522    0.0085   -1.7191 C.ar    1  UNL1       -0.0543
      5 C          -5.0297   -0.5505   -2.5279 C.ar    1  UNL1       -0.0606
      6 C          -3.6269   -0.7049   -2.1234 C.ar    1  UNL1       -0.0534
      7 C          -3.1639   -0.3015   -0.9143 C.ar    1  UNL1       -0.0105
      8 C          -1.7383   -0.4888   -0.6052 C.ar    1  UNL1       -0.0167
      9 C          -1.2551   -1.7380   -0.2078 C.ar    1  UNL1       -0.0534
     10 C           0.1035   -1.9209    0.0955 C.ar    1  UNL1       -0.0514
     11 C           1.0465   -0.8762    0.0221 C.ar    1  UNL1        0.0089
     12 C           0.5143    0.3943   -0.3862 C.ar    1  UNL1       -0.0045
     13 C          -0.8539    0.5856   -0.6939 C.ar    1  UNL1       -0.0455
     14 C           1.5177    1.3801   -0.4314 C.ar    1  UNL1        0.0283
     15 C           1.3855    2.7006   -0.7742 C.ar    1  UNL1        0.1000
     16 O           2.5994    3.3180   -0.6904 O.2     1  UNL1       -0.4698
     17 C           3.5094    2.3789   -0.2905 C.ar    1  UNL1        0.1001
     18 C           2.8909    1.1662   -0.1173 C.ar    1  UNL1        0.0316
     19 C           3.4199   -0.0658    0.2803 C.ar    1  UNL1        0.0356
     20 C           4.7480   -0.3688    0.6070 C.ar    1  UNL1        0.0579
     21 N           5.9025    0.3806    0.6468 N.ar    1  UNL1       -0.3601
     22 C           6.9656   -0.3909    1.0359 C.ar    1  UNL1        0.0028
     23 C           6.5007   -1.6652    1.2544 C.ar    1  UNL1       -0.0352
     24 C           5.1038   -1.6646    0.9873 C.ar    1  UNL1        0.0184
     25 C           4.1120   -2.6435    1.0338 C.ar    1  UNL1        0.0374
     26 N           2.8252   -2.3507    0.7173 N.ar    1  UNL1       -0.2536
     27 C           2.4406   -1.1125    0.3454 C.ar    1  UNL1        0.0813
     28 C          -4.1301    0.3057   -0.0094 C.ar    1  UNL1       -0.0141
     29 C          -3.9836    0.7895    1.2332 C.2     1  UNL1       -0.0720
     30 H          -5.2541    2.3763    1.9465 H       1  UNL1        0.0350
     31 H          -5.6315    0.7621    2.6205 H       1  UNL1        0.0350
     32 H          -7.2756    1.2703    0.5491 H       1  UNL1        0.0581
     33 H          -6.9868    0.1217   -2.0187 H       1  UNL1        0.0624
     34 H          -5.3039   -0.9062   -3.5163 H       1  UNL1        0.0618
     35 H          -2.9646   -1.1619   -2.8545 H       1  UNL1        0.0624
     36 H          -1.9332   -2.5853   -0.1246 H       1  UNL1        0.0624
     37 H           0.4268   -2.9166    0.4009 H       1  UNL1        0.0624
     38 H          -1.2225    1.5615   -0.9981 H       1  UNL1        0.0630
     39 H           0.5649    3.3326   -1.0833 H       1  UNL1        0.1036
     40 H           4.5136    2.7583   -0.1896 H       1  UNL1        0.1036
     41 H           5.9694    1.3615    0.4228 H       1  UNL1        0.1654
     42 H           7.9571    0.0335    1.1230 H       1  UNL1        0.0807
     43 H           7.0984   -2.5098    1.5722 H       1  UNL1        0.0639
     44 H           4.3115   -3.6703    1.3194 H       1  UNL1        0.0836
     45 H          -3.0683    0.8088    1.8048 H       1  UNL1        0.0581
@<TRIPOS>BOND
     1     1     2    1
     2     2     3    2
     3     3     4   ar
     4     4     5   ar
     5     5     6   ar
     6     6     7   ar
     7     7     8    1
     8     8     9   ar
     9     9    10   ar
    10    10    11   ar
    11    11    12   ar
    12    12    13   ar
    13    12    14   ar
    14    14    15   ar
    15    15    16   ar
    16    16    17   ar
    17    17    18   ar
    18    18    19   ar
    19    19    20   ar
    20    20    21   ar
    21    21    22   ar
    22    22    23   ar
    23    23    24   ar
    24    24    25   ar
    25    25    26   ar
    26    26    27   ar
    27     7    28   ar
    28    28    29    2
    29    29     1    1
    30    28     3   ar
    31    13     8   ar
    32    18    14   ar
    33    27    19   ar
    34    27    11   ar
    35    24    20   ar
    36     1    30    1
    37     1    31    1
    38     2    32    1
    39     4    33    1
    40     5    34    1
    41     6    35    1
    42     9    36    1
    43    10    37    1
    44    13    38    1
    45    15    39    1
    46    17    40    1
    47    21    41    1
    48    22    42    1
    49    23    43    1
    50    25    44    1
    51    29    45    1
