@<TRIPOS>MOLECULE
*****
 40 45 0 0 0
SMALL
GASTEIGER

@<TRIPOS>ATOM
      1 C          -1.7906   -4.6664   -2.4208 C.3     1  UNL1       -0.0148
      2 C          -1.9681   -4.3061   -3.8703 C.2     1  UNL1       -0.0725
      3 C          -1.7151   -3.0009   -4.0316 C.ar    1  UNL1       -0.0212
      4 C          -1.7446   -2.1923   -5.2244 C.ar    1  UNL1       -0.0543
      5 C          -1.4376   -0.8847   -5.1064 C.ar    1  UNL1       -0.0606
      6 C          -1.0843   -0.2786   -3.8167 C.ar    1  UNL1       -0.0534
      7 C          -1.0401   -0.9871   -2.6613 C.ar    1  UNL1       -0.0104
      8 C          -0.6837   -0.2880   -1.4170 C.ar    1  UNL1       -0.0153
      9 C          -1.6820    0.0956   -0.5191 C.ar    1  UNL1       -0.0533
     10 C          -1.3386    0.7512    0.6606 C.ar    1  UNL1       -0.0509
     11 C           0.0189    1.0233    0.9436 C.ar    1  UNL1        0.0147
     12 C           0.4445    1.6887    2.1279 C.ar    1  UNL1        0.0308
     13 S          -0.5344    2.3015    3.4498 S.2     1  UNL1       -0.0878
     14 C           0.8163    2.8487    4.2552 C.ar    1  UNL1        0.0166
     15 C           1.0136    3.5153    5.4806 C.2     1  UNL1       -0.0513
     16 C           2.3482    3.6990    5.6026 C.2     1  UNL1       -0.0786
     17 C           3.1189    3.1323    4.4030 C.3     1  UNL1       -0.0075
     18 C           1.9877    2.6025    3.5932 C.ar    1  UNL1       -0.0203
     19 C           1.8120    1.9325    2.3578 C.ar    1  UNL1        0.0119
     20 C           2.7321    1.5049    1.3958 C.ar    1  UNL1        0.0368
     21 N           2.3348    0.8727    0.2691 N.ar    1  UNL1       -0.2543
     22 C           1.0347    0.6390    0.0474 C.ar    1  UNL1        0.0726
     23 C           0.6598   -0.0127   -1.1186 C.ar    1  UNL1       -0.0280
     24 C          -1.3629   -2.4047   -2.7463 C.ar    1  UNL1       -0.0141
     25 C          -1.3993   -3.3540   -1.7991 C.2     1  UNL1       -0.0720
     26 H          -1.0000   -5.4120   -2.2951 H       1  UNL1        0.0350
     27 H          -2.7243   -5.0417   -1.9917 H       1  UNL1        0.0350
     28 H          -2.2508   -5.0019   -4.6444 H       1  UNL1        0.0581
     29 H          -2.0045   -2.6383   -6.1765 H       1  UNL1        0.0624
     30 H          -1.4439   -0.2348   -5.9759 H       1  UNL1        0.0618
     31 H          -0.8595    0.7849   -3.8331 H       1  UNL1        0.0624
     32 H          -2.7272   -0.1150   -0.7355 H       1  UNL1        0.0624
     33 H          -2.1277    1.0435    1.3479 H       1  UNL1        0.0625
     34 H           0.2426    3.8144    6.1749 H       1  UNL1        0.0626
     35 H           2.8314    4.1847    6.4380 H       1  UNL1        0.0576
     36 H           3.8029    2.3398    4.7189 H       1  UNL1        0.0356
     37 H           3.6616    3.9242    3.8796 H       1  UNL1        0.0356
     38 H           3.8012    1.6559    1.5011 H       1  UNL1        0.0836
     39 H           1.4388   -0.3189   -1.8143 H       1  UNL1        0.0645
     40 H          -1.1807   -3.2165   -0.7513 H       1  UNL1        0.0581
@<TRIPOS>BOND
     1     1     2    1
     2     2     3    2
     3     3     4   ar
     4     4     5   ar
     5     5     6   ar
     6     6     7   ar
     7     7     8    1
     8     8     9   ar
     9     9    10   ar
    10    10    11   ar
    11    11    12   ar
    12    12    13   ar
    13    13    14   ar
    14    14    15    1
    15    15    16    2
    16    16    17    1
    17    17    18    1
    18    18    19   ar
    19    19    20   ar
    20    20    21   ar
    21    21    22   ar
    22    22    23   ar
    23     7    24   ar
    24    24    25    2
    25    25     1    1
    26    24     3   ar
    27    23     8   ar
    28    22    11   ar
    29    19    12   ar
    30    18    14   ar
    31     1    26    1
    32     1    27    1
    33     2    28    1
    34     4    29    1
    35     5    30    1
    36     6    31    1
    37     9    32    1
    38    10    33    1
    39    15    34    1
    40    16    35    1
    41    17    36    1
    42    17    37    1
    43    20    38    1
    44    23    39    1
    45    25    40    1
