@<TRIPOS>MOLECULE
*****
 44 50 0 0 0
SMALL
GASTEIGER

@<TRIPOS>ATOM
      1 C           5.8523   -0.4159    1.7618 C.3     1  UNL1       -0.0148
      2 C           6.5993    0.3183    0.6828 C.2     1  UNL1       -0.0725
      3 C           5.7604    0.5886   -0.3253 C.ar    1  UNL1       -0.0212
      4 C           6.0002    1.2755   -1.5694 C.ar    1  UNL1       -0.0543
      5 C           4.9633    1.4199   -2.4187 C.ar    1  UNL1       -0.0606
      6 C           3.6248    0.9004   -2.1130 C.ar    1  UNL1       -0.0534
      7 C           3.3376    0.2453   -0.9605 C.ar    1  UNL1       -0.0089
      8 C           1.9699   -0.2513   -0.7495 C.ar    1  UNL1        0.0043
      9 C           1.6929   -1.6212   -0.8296 C.ar    1  UNL1        0.0362
     10 N           0.4812   -2.2070   -0.6478 N.ar    1  UNL1       -0.2506
     11 C          -0.5162   -1.3290   -0.3622 C.ar    1  UNL1        0.1166
     12 C          -0.3137    0.0405   -0.2647 C.ar    1  UNL1        0.1550
     13 C           0.9279    0.6332   -0.4517 C.ar    1  UNL1       -0.0080
     14 O          -1.4786    0.6739    0.0314 O.2     1  UNL1       -0.4526
     15 C          -2.4468   -0.2886    0.1268 C.ar    1  UNL1        0.1461
     16 C          -1.8956   -1.5479   -0.1102 C.ar    1  UNL1        0.0468
     17 C          -2.7331   -2.6767   -0.0576 C.ar    1  UNL1       -0.0483
     18 C          -4.0980   -2.5102    0.2306 C.ar    1  UNL1       -0.0532
     19 C          -4.6594   -1.2481    0.4698 C.ar    1  UNL1       -0.0137
     20 C          -6.0617   -1.1284    0.7607 C.ar    1  UNL1       -0.0533
     21 C          -6.7364    0.0881    1.0179 C.ar    1  UNL1       -0.0529
     22 C          -5.8799    1.1854    0.9589 C.ar    1  UNL1       -0.0102
     23 C          -6.3203    2.4674    1.1763 C.ar    1  UNL1       -0.0166
     24 S          -5.0352    3.5974    1.0355 S.2     1  UNL1       -0.1039
     25 C          -3.8902    2.3621    0.6829 C.ar    1  UNL1       -0.0159
     26 C          -4.4672    1.1131    0.6707 C.ar    1  UNL1        0.0004
     27 C          -3.8007   -0.0990    0.4154 C.ar    1  UNL1        0.0333
     28 C           4.4312    0.0715   -0.0135 C.ar    1  UNL1       -0.0140
     29 C           4.4622   -0.5127    1.1940 C.2     1  UNL1       -0.0720
     30 H           6.2784   -1.4094    1.9292 H       1  UNL1        0.0350
     31 H           5.8557    0.1506    2.6976 H       1  UNL1        0.0350
     32 H           7.6444    0.5812    0.7319 H       1  UNL1        0.0581
     33 H           6.9875    1.6589   -1.7965 H       1  UNL1        0.0624
     34 H           5.0942    1.9312   -3.3677 H       1  UNL1        0.0618
     35 H           2.8660    1.0647   -2.8744 H       1  UNL1        0.0624
     36 H           2.4918   -2.3259   -1.0577 H       1  UNL1        0.0836
     37 H           1.0678    1.7029   -0.3640 H       1  UNL1        0.0661
     38 H          -2.3244   -3.6675   -0.2390 H       1  UNL1        0.0625
     39 H          -4.7237   -3.4014    0.2649 H       1  UNL1        0.0624
     40 H          -6.6643   -2.0387    0.7884 H       1  UNL1        0.0624
     41 H          -7.7960    0.1328    1.2331 H       1  UNL1        0.0624
     42 H          -7.3181    2.8127    1.4096 H       1  UNL1        0.0699
     43 H          -2.8620    2.6437    0.5075 H       1  UNL1        0.0700
     44 H           3.6324   -0.9805    1.7014 H       1  UNL1        0.0581
@<TRIPOS>BOND
     1     1     2    1
     2     2     3    2
     3     3     4   ar
     4     4     5   ar
     5     5     6   ar
     6     6     7   ar
     7     7     8    1
     8     8     9   ar
     9     9    10   ar
    10    10    11   ar
    11    11    12   ar
    12    12    13   ar
    13    12    14   ar
    14    14    15   ar
    15    15    16   ar
    16    16    17   ar
    17    17    18   ar
    18    18    19   ar
    19    19    20   ar
    20    20    21   ar
    21    21    22   ar
    22    22    23   ar
    23    23    24   ar
    24    24    25   ar
    25    25    26   ar
    26    26    27   ar
    27     7    28   ar
    28    28    29    2
    29    29     1    1
    30    28     3   ar
    31    13     8   ar
    32    27    15   ar
    33    16    11   ar
    34    27    19   ar
    35    26    22   ar
    36     1    30    1
    37     1    31    1
    38     2    32    1
    39     4    33    1
    40     5    34    1
    41     6    35    1
    42     9    36    1
    43    13    37    1
    44    17    38    1
    45    18    39    1
    46    20    40    1
    47    21    41    1
    48    23    42    1
    49    25    43    1
    50    29    44    1
