@<TRIPOS>MOLECULE
*****
 47 53 0 0 0
SMALL
GASTEIGER

@<TRIPOS>ATOM
      1 C          -6.1843   -0.1734   -2.6804 C.3     1  UNL1       -0.0148
      2 C          -7.1697    0.4335   -1.7203 C.2     1  UNL1       -0.0725
      3 C          -6.5230    0.8185   -0.6128 C.ar    1  UNL1       -0.0212
      4 C          -7.0288    1.4398    0.5852 C.ar    1  UNL1       -0.0543
      5 C          -6.1496    1.7217    1.5675 C.ar    1  UNL1       -0.0606
      6 C          -4.7182    1.4202    1.4450 C.ar    1  UNL1       -0.0534
      7 C          -4.1827    0.8376    0.3433 C.ar    1  UNL1       -0.0089
      8 C          -2.7342    0.5878    0.3069 C.ar    1  UNL1        0.0043
      9 C          -1.9009    1.3670   -0.5047 C.ar    1  UNL1        0.0362
     10 N          -0.5556    1.2349   -0.6358 N.ar    1  UNL1       -0.2506
     11 C          -0.0265    0.2334    0.1153 C.ar    1  UNL1        0.1166
     12 C          -0.7927   -0.5806    0.9409 C.ar    1  UNL1        0.1550
     13 C          -2.1680   -0.4393    1.0697 C.ar    1  UNL1       -0.0080
     14 O          -0.0064   -1.4959    1.5704 O.2     1  UNL1       -0.4532
     15 C           1.2702   -1.2674    1.1470 C.ar    1  UNL1        0.1384
     16 C           2.3918   -1.9829    1.5476 C.ar    1  UNL1       -0.0109
     17 C           3.6331   -1.6043    1.0039 C.ar    1  UNL1       -0.0138
     18 C           4.7710   -2.3120    1.3949 C.ar    1  UNL1       -0.0533
     19 C           6.0270   -1.9852    0.8921 C.ar    1  UNL1       -0.0534
     20 C           6.1837   -0.9386   -0.0186 C.ar    1  UNL1       -0.0173
     21 C           7.4665   -0.6353   -0.5063 C.ar    1  UNL1       -0.0540
     22 C           7.6640    0.4003   -1.4151 C.ar    1  UNL1       -0.0612
     23 C           6.5782    1.1455   -1.8471 C.ar    1  UNL1       -0.0611
     24 C           5.2971    0.8531   -1.3689 C.ar    1  UNL1       -0.0534
     25 C           5.0534   -0.1934   -0.4426 C.ar    1  UNL1       -0.0102
     26 C           3.7525   -0.5303    0.0766 C.ar    1  UNL1       -0.0093
     27 C           2.5616    0.1568   -0.2876 C.ar    1  UNL1       -0.0406
     28 C           1.3131   -0.2123    0.2495 C.ar    1  UNL1        0.0468
     29 C          -5.1009    0.5134   -0.7405 C.ar    1  UNL1       -0.0140
     30 C          -4.8837   -0.0648   -1.9316 C.2     1  UNL1       -0.0720
     31 H          -6.4312   -1.2184   -2.8892 H       1  UNL1        0.0350
     32 H          -6.1473    0.3920   -3.6162 H       1  UNL1        0.0350
     33 H          -8.2275    0.5311   -1.9086 H       1  UNL1        0.0581
     34 H          -8.0847    1.6634    0.6767 H       1  UNL1        0.0624
     35 H          -6.4829    2.1888    2.4893 H       1  UNL1        0.0618
     36 H          -4.0993    1.6999    2.2943 H       1  UNL1        0.0624
     37 H          -2.3241    2.1695   -1.1077 H       1  UNL1        0.0836
     38 H          -2.7496   -1.0880    1.7120 H       1  UNL1        0.0661
     39 H           2.2933   -2.7997    2.2540 H       1  UNL1        0.0660
     40 H           4.6960   -3.1356    2.1028 H       1  UNL1        0.0624
     41 H           6.8871   -2.5632    1.2239 H       1  UNL1        0.0624
     42 H           8.3304   -1.2100   -0.1779 H       1  UNL1        0.0624
     43 H           8.6621    0.6221   -1.7825 H       1  UNL1        0.0618
     44 H           6.7200    1.9567   -2.5565 H       1  UNL1        0.0618
     45 H           4.4833    1.4693   -1.7412 H       1  UNL1        0.0624
     46 H           2.5716    0.9851   -0.9879 H       1  UNL1        0.0631
     47 H          -3.9351   -0.4107   -2.3128 H       1  UNL1        0.0581
@<TRIPOS>BOND
     1     1     2    1
     2     2     3    2
     3     3     4   ar
     4     4     5   ar
     5     5     6   ar
     6     6     7   ar
     7     7     8    1
     8     8     9   ar
     9     9    10   ar
    10    10    11   ar
    11    11    12   ar
    12    12    13   ar
    13    12    14   ar
    14    14    15   ar
    15    15    16   ar
    16    16    17   ar
    17    17    18   ar
    18    18    19   ar
    19    19    20   ar
    20    20    21   ar
    21    21    22   ar
    22    22    23   ar
    23    23    24   ar
    24    24    25   ar
    25    25    26   ar
    26    26    27   ar
    27    27    28   ar
    28     7    29   ar
    29    29    30    2
    30    30     1    1
    31    29     3   ar
    32    13     8   ar
    33    28    15   ar
    34    28    11   ar
    35    26    17   ar
    36    25    20   ar
    37     1    31    1
    38     1    32    1
    39     2    33    1
    40     4    34    1
    41     5    35    1
    42     6    36    1
    43     9    37    1
    44    13    38    1
    45    16    39    1
    46    18    40    1
    47    19    41    1
    48    21    42    1
    49    22    43    1
    50    23    44    1
    51    24    45    1
    52    27    46    1
    53    30    47    1
