@<TRIPOS>MOLECULE
*****
 48 55 0 0 0
SMALL
GASTEIGER

@<TRIPOS>ATOM
      1 C           5.2592   -1.1043    0.8233 C.3     1  UNL1       -0.0089
      2 C           6.7461   -0.8955    0.8292 C.2     1  UNL1       -0.0797
      3 C           7.0380    0.2829    0.2631 C.2     1  UNL1       -0.0651
      4 C           5.8197    0.9306   -0.1502 C.2     1  UNL1       -0.0583
      5 C           4.7631    0.1580    0.1571 C.2     1  UNL1       -0.0401
      6 C           3.3693    0.4241   -0.0793 C.2     1  UNL1       -0.0390
      7 C           2.8470    1.5239   -0.6520 C.2     1  UNL1       -0.0499
      8 C           1.4176    1.3392   -0.6672 C.ar    1  UNL1       -0.0124
      9 C           1.0240    0.1181   -0.1043 C.ar    1  UNL1       -0.0269
     10 C           2.2917   -0.5823    0.3138 C.3     1  UNL1       -0.0010
     11 C          -0.3530   -0.3087   -0.0009 C.ar    1  UNL1       -0.0035
     12 C          -0.8183   -1.5692    0.4664 C.ar    1  UNL1        0.0080
     13 C          -0.0499   -2.6341    0.8826 C.ar    1  UNL1        0.0100
     14 N          -0.8944   -3.6674    1.2170 N.ar    1  UNL1       -0.3659
     15 C          -2.1984   -3.2839    1.0296 C.ar    1  UNL1        0.0100
     16 C          -2.1886   -1.9878    0.5638 C.ar    1  UNL1        0.0077
     17 C          -3.3329   -1.2082    0.2894 C.ar    1  UNL1       -0.0074
     18 C          -4.7029   -1.6940    0.4612 C.ar    1  UNL1       -0.0527
     19 C          -5.8472   -0.8935    0.3205 C.ar    1  UNL1       -0.0504
     20 C          -5.4637    0.4104    0.0744 C.ar    1  UNL1        0.0205
     21 C          -6.3126    1.4839    0.0409 C.ar    1  UNL1        0.0994
     22 O          -5.5836    2.6298   -0.0757 O.2     1  UNL1       -0.4698
     23 C          -4.2658    2.2711   -0.1235 C.ar    1  UNL1        0.1000
     24 C          -4.1316    0.9020   -0.1245 C.ar    1  UNL1        0.0282
     25 C          -2.9282    0.1287   -0.1269 C.ar    1  UNL1        0.0018
     26 C          -1.4981    0.5199   -0.4015 C.ar    1  UNL1       -0.0003
     27 C          -1.0099    1.6863   -1.1032 C.ar    1  UNL1       -0.0020
     28 C          -1.7686    2.4683   -1.9465 C.ar    1  UNL1       -0.0160
     29 S          -0.8894    3.7880   -2.6094 S.2     1  UNL1       -0.1038
     30 C           0.5797    3.2354   -1.9248 C.ar    1  UNL1       -0.0160
     31 C           0.3852    2.0814   -1.2059 C.ar    1  UNL1       -0.0028
     32 H           4.8788   -1.1977    1.8456 H       1  UNL1        0.0356
     33 H           4.9974   -1.9961    0.2450 H       1  UNL1        0.0356
     34 H           7.4624   -1.5955    1.2316 H       1  UNL1        0.0575
     35 H           8.0237    0.7016    0.1273 H       1  UNL1        0.0615
     36 H           5.7987    1.8955   -0.6333 H       1  UNL1        0.0620
     37 H           3.3656    2.3879   -1.0309 H       1  UNL1        0.0627
     38 H           2.4271   -1.5115   -0.2483 H       1  UNL1        0.0362
     39 H           2.2999   -0.7586    1.3940 H       1  UNL1        0.0362
     40 H           1.0134   -2.7867    0.9765 H       1  UNL1        0.0813
     41 H          -0.5977   -4.5740    1.5553 H       1  UNL1        0.1648
     42 H          -2.9991   -3.9734    1.2569 H       1  UNL1        0.0813
     43 H          -4.8578   -2.7353    0.7405 H       1  UNL1        0.0624
     44 H          -6.8547   -1.2497    0.4767 H       1  UNL1        0.0625
     45 H          -7.3812    1.6171    0.1324 H       1  UNL1        0.1035
     46 H          -3.5808    3.1063   -0.1287 H       1  UNL1        0.1036
     47 H          -2.7994    2.3544   -2.2453 H       1  UNL1        0.0700
     48 H           1.5004    3.7629   -2.1318 H       1  UNL1        0.0700
@<TRIPOS>BOND
     1     1     2    1
     2     2     3    2
     3     3     4    1
     4     4     5    2
     5     5     6    1
     6     6     7    2
     7     7     8    1
     8     8     9   ar
     9     9    10    1
    10     9    11   ar
    11    11    12   ar
    12    12    13   ar
    13    13    14   ar
    14    14    15   ar
    15    15    16   ar
    16    16    17   ar
    17    17    18   ar
    18    18    19   ar
    19    19    20   ar
    20    20    21   ar
    21    21    22   ar
    22    22    23   ar
    23    23    24   ar
    24    24    25   ar
    25    25    26   ar
    26    26    27   ar
    27    27    28   ar
    28    28    29   ar
    29    29    30   ar
    30    30    31   ar
    31     5     1    1
    32    10     6    1
    33    26    11   ar
    34    31    27   ar
    35    31     8   ar
    36    16    12   ar
    37    25    17   ar
    38    24    20   ar
    39     1    32    1
    40     1    33    1
    41     2    34    1
    42     3    35    1
    43     4    36    1
    44     7    37    1
    45    10    38    1
    46    10    39    1
    47    13    40    1
    48    14    41    1
    49    15    42    1
    50    18    43    1
    51    19    44    1
    52    21    45    1
    53    23    46    1
    54    28    47    1
    55    30    48    1
