@<TRIPOS>MOLECULE
*****
 36 41 0 0 0
SMALL
GASTEIGER

@<TRIPOS>ATOM
      1 C          -3.9643    1.4986   -0.1315 C.3     1  UNL1       -0.0089
      2 C          -5.4634    1.4163   -0.1500 C.2     1  UNL1       -0.0797
      3 C          -5.8453    0.1341   -0.0850 C.2     1  UNL1       -0.0651
      4 C          -4.6801   -0.7101   -0.0205 C.2     1  UNL1       -0.0583
      5 C          -3.5667    0.0431   -0.0450 C.2     1  UNL1       -0.0401
      6 C          -2.1978   -0.3962    0.0002 C.2     1  UNL1       -0.0389
      7 C          -1.7660   -1.6688    0.0809 C.2     1  UNL1       -0.0484
      8 C          -0.3214   -1.6260    0.0993 C.ar    1  UNL1        0.0075
      9 C           0.1607   -0.3073    0.0291 C.ar    1  UNL1       -0.0259
     10 C          -1.0445    0.6003   -0.0414 C.3     1  UNL1       -0.0009
     11 C           1.5308    0.0350    0.0290 C.ar    1  UNL1       -0.0081
     12 C           1.9469    1.3763   -0.0435 C.ar    1  UNL1       -0.0107
     13 C           3.3189    1.6318   -0.0384 C.ar    1  UNL1        0.1354
     14 O           3.8858    2.8689   -0.1025 O.2     1  UNL1       -0.4629
     15 C           5.2321    2.6899   -0.0725 C.ar    1  UNL1        0.0931
     16 C           5.5405    1.3516    0.0103 C.ar    1  UNL1       -0.0161
     17 C           4.3031    0.6556    0.0329 C.ar    1  UNL1        0.0208
     18 C           3.9109   -0.6898    0.1059 C.ar    1  UNL1       -0.0411
     19 C           2.5270   -0.9949    0.1037 C.ar    1  UNL1        0.0114
     20 C           2.0707   -2.3662    0.1772 C.ar    1  UNL1        0.1082
     21 N           2.8356   -3.4714    0.2530 N.ar    1  UNL1       -0.1901
     22 S           1.7996   -4.7675    0.3138 S.2     1  UNL1        0.1165
     23 N           0.3285   -4.0015    0.2476 N.ar    1  UNL1       -0.1902
     24 C           0.5915   -2.6872    0.1746 C.ar    1  UNL1        0.1079
     25 H          -3.5922    1.9649   -1.0493 H       1  UNL1        0.0356
     26 H          -3.6197    2.0638    0.7403 H       1  UNL1        0.0356
     27 H          -6.1239    2.2681   -0.2071 H       1  UNL1        0.0575
     28 H          -6.8607   -0.2324   -0.0804 H       1  UNL1        0.0615
     29 H          -4.7339   -1.7868    0.0380 H       1  UNL1        0.0620
     30 H          -2.3457   -2.5768    0.1258 H       1  UNL1        0.0627
     31 H          -1.0729    1.2716    0.8230 H       1  UNL1        0.0362
     32 H          -1.0469    1.1663   -0.9785 H       1  UNL1        0.0362
     33 H           1.2487    2.2032   -0.1020 H       1  UNL1        0.0661
     34 H           5.8237    3.5937   -0.1167 H       1  UNL1        0.1029
     35 H           6.5341    0.9285    0.0495 H       1  UNL1        0.0655
     36 H           4.6563   -1.4788    0.1629 H       1  UNL1        0.0631
@<TRIPOS>BOND
     1     1     2    1
     2     2     3    2
     3     3     4    1
     4     4     5    2
     5     5     6    1
     6     6     7    2
     7     7     8    1
     8     8     9   ar
     9     9    10    1
    10     9    11   ar
    11    11    12   ar
    12    12    13   ar
    13    13    14   ar
    14    14    15   ar
    15    15    16   ar
    16    16    17   ar
    17    17    18   ar
    18    18    19   ar
    19    19    20   ar
    20    20    21   ar
    21    21    22   ar
    22    22    23   ar
    23    23    24   ar
    24     5     1    1
    25    10     6    1
    26    19    11   ar
    27    24    20   ar
    28    24     8   ar
    29    17    13   ar
    30     1    25    1
    31     1    26    1
    32     2    27    1
    33     3    28    1
    34     4    29    1
    35     7    30    1
    36    10    31    1
    37    10    32    1
    38    12    33    1
    39    15    34    1
    40    16    35    1
    41    18    36    1
