@<TRIPOS>MOLECULE
*****
 37 42 0 0 0
SMALL
GASTEIGER

@<TRIPOS>ATOM
      1 C           4.9368    1.3523   -0.1637 C.3     1  UNL1        0.0000
      2 C           6.2828    0.6930   -0.2340 C.2     1  UNL1        0.0000
      3 C           6.1308   -0.6363   -0.2710 C.2     1  UNL1        0.0000
      4 C           4.7275   -0.9596   -0.2300 C.2     1  UNL1        0.0000
      5 C           3.9925    0.1664   -0.1670 C.2     1  UNL1        0.0000
      6 C           2.5599    0.3208   -0.1095 C.2     1  UNL1        0.0000
      7 C           1.8849    1.4881   -0.0480 C.2     1  UNL1        0.0000
      8 C           0.4186    1.3570    0.0023 C.ar    1  UNL1        0.0000
      9 C          -0.4560    2.4264    0.0682 C.ar    1  UNL1        0.0000
     10 N          -1.7965    2.2854    0.1139 N.ar    1  UNL1        0.0000
     11 C          -2.2961    1.0170    0.0929 C.ar    1  UNL1        0.0000
     12 C          -3.7096    0.9494    0.1437 C.ar    1  UNL1        0.0000
     13 O          -4.6033    1.9953    0.2098 O.2     1  UNL1        0.0000
     14 C          -5.8589    1.4572    0.2401 C.ar    1  UNL1        0.0000
     15 C          -5.8167    0.0783    0.1955 C.ar    1  UNL1        0.0000
     16 C          -4.4546   -0.2061    0.1356 C.ar    1  UNL1        0.0000
     17 C          -3.7477   -1.4306    0.0709 C.ar    1  UNL1        0.0000
     18 C          -4.3375   -2.6594    0.0547 C.ar    1  UNL1        0.0000
     19 S          -3.1062   -3.8526   -0.0286 S.2     1  UNL1        0.0000
     20 C          -1.8495   -2.6611   -0.0385 C.ar    1  UNL1        0.0000
     21 C          -2.3245   -1.3670    0.0196 C.ar    1  UNL1        0.0000
     22 C          -1.5067   -0.1765    0.0262 C.ar    1  UNL1        0.0000
     23 C          -0.1024    0.0383   -0.0195 C.ar    1  UNL1        0.0000
     24 SI          1.3531   -1.1373   -0.1104 Si      1  UNL1        0.0000
     25 H           4.8440    1.9390    0.7561 H       1  UNL1        0.0000
     26 H           4.7785    1.9963   -1.0349 H       1  UNL1        0.0000
     27 H           7.2239    1.2212   -0.2515 H       1  UNL1        0.0000
     28 H           6.9218   -1.3690   -0.3233 H       1  UNL1        0.0000
     29 H           4.3758   -1.9798   -0.2497 H       1  UNL1        0.0000
     30 H           2.3423    2.4693   -0.0342 H       1  UNL1        0.0000
     31 H          -0.1026    3.4528    0.0871 H       1  UNL1        0.0000
     32 H          -6.6630    2.1784    0.2928 H       1  UNL1        0.0000
     33 H          -6.6649   -0.5897    0.2065 H       1  UNL1        0.0000
     34 H          -5.3824   -2.9353    0.0852 H       1  UNL1        0.0000
     35 H          -0.8411   -3.0352   -0.0880 H       1  UNL1        0.0000
     36 H           1.4697   -1.9821    1.1056 H       1  UNL1        0.0000
     37 H           1.3773   -1.9040   -1.3823 H       1  UNL1        0.0000
@<TRIPOS>BOND
     1     1     2    1
     2     2     3    2
     3     3     4    1
     4     4     5    2
     5     5     6    1
     6     6     7    2
     7     7     8    1
     8     8     9   ar
     9     9    10   ar
    10    10    11   ar
    11    11    12   ar
    12    12    13   ar
    13    13    14   ar
    14    14    15   ar
    15    15    16   ar
    16    16    17   ar
    17    17    18   ar
    18    18    19   ar
    19    19    20   ar
    20    20    21   ar
    21    21    22   ar
    22    22    23   ar
    23    23    24    1
    24     5     1    1
    25    24     6    1
    26    23     8   ar
    27    22    11   ar
    28    16    12   ar
    29    21    17   ar
    30     1    25    1
    31     1    26    1
    32     2    27    1
    33     3    28    1
    34     4    29    1
    35     7    30    1
    36     9    31    1
    37    14    32    1
    38    15    33    1
    39    18    34    1
    40    20    35    1
    41    24    36    1
    42    24    37    1
