@<TRIPOS>MOLECULE
*****
 41 46 0 0 0
SMALL
GASTEIGER

@<TRIPOS>ATOM
      1 SI         -0.9593    3.5895    0.3587 Si      1  UNL1        0.0000
      2 C          -2.1057    2.1337    0.2965 C.2     1  UNL1        0.0000
      3 C          -1.4408    0.9807    0.0746 C.ar    1  UNL1        0.0000
      4 C          -2.0916   -0.3022   -0.1673 C.ar    1  UNL1        0.0000
      5 C          -1.3224   -1.3455   -0.5318 C.ar    1  UNL1        0.0000
      6 C           0.1471   -1.2672   -0.6193 C.ar    1  UNL1        0.0000
      7 N           0.7149   -2.4306   -1.0093 N.ar    1  UNL1        0.0000
      8 C           2.0587   -2.4762   -1.0160 C.ar    1  UNL1        0.0000
      9 C           2.8903   -1.4462   -0.5914 C.ar    1  UNL1        0.0000
     10 C           4.2889   -1.6491   -0.5856 C.ar    1  UNL1        0.0000
     11 C           5.1273   -0.6411   -0.0922 C.ar    1  UNL1        0.0000
     12 C           6.5243   -0.4702    0.0887 C.ar    1  UNL1        0.0000
     13 C           6.6903    0.7676    0.6669 C.ar    1  UNL1        0.0000
     14 O           5.4876    1.3712    0.8561 O.2     1  UNL1        0.0000
     15 C           4.5380    0.5152    0.3870 C.ar    1  UNL1        0.0000
     16 C           3.1630    0.7510    0.3879 C.ar    1  UNL1        0.0000
     17 C           2.2930   -0.2311   -0.1544 C.ar    1  UNL1        0.0000
     18 C           0.8718   -0.1076   -0.2548 C.ar    1  UNL1        0.0000
     19 C           0.0422    1.1149   -0.0109 C.ar    1  UNL1        0.0000
     20 C           0.4518    2.4020    0.0288 C.2     1  UNL1        0.0000
     21 C          -3.5454   -0.5345   -0.0812 C.ar    1  UNL1        0.0000
     22 C          -4.1452   -0.7810    1.1601 C.ar    1  UNL1        0.0000
     23 C          -5.5225   -0.9925    1.2459 C.ar    1  UNL1        0.0000
     24 C          -6.3071   -0.9571    0.0936 C.ar    1  UNL1        0.0000
     25 C          -5.7173   -0.7097   -1.1457 C.ar    1  UNL1        0.0000
     26 C          -4.3403   -0.4979   -1.2341 C.ar    1  UNL1        0.0000
     27 H          -0.8706    4.1989    1.7073 H       1  UNL1        0.0000
     28 H          -1.1655    4.5362   -0.7634 H       1  UNL1        0.0000
     29 H          -3.1748    2.2655    0.3613 H       1  UNL1        0.0000
     30 H          -1.7504   -2.3205   -0.7466 H       1  UNL1        0.0000
     31 H           2.4648   -3.4251   -1.3596 H       1  UNL1        0.0000
     32 H           4.7216   -2.5812   -0.9393 H       1  UNL1        0.0000
     33 H           7.3124   -1.1652   -0.1633 H       1  UNL1        0.0000
     34 H           7.5520    1.3336    0.9925 H       1  UNL1        0.0000
     35 H           2.8059    1.6604    0.8469 H       1  UNL1        0.0000
     36 H           1.4329    2.8134   -0.1239 H       1  UNL1        0.0000
     37 H          -3.5407   -0.8092    2.0637 H       1  UNL1        0.0000
     38 H          -5.9822   -1.1853    2.2116 H       1  UNL1        0.0000
     39 H          -7.3792   -1.1229    0.1613 H       1  UNL1        0.0000
     40 H          -6.3289   -0.6818   -2.0436 H       1  UNL1        0.0000
     41 H          -3.8889   -0.3028   -2.2041 H       1  UNL1        0.0000
@<TRIPOS>BOND
     1     1     2    1
     2     2     3    2
     3     3     4   ar
     4     4     5   ar
     5     5     6   ar
     6     6     7   ar
     7     7     8   ar
     8     8     9   ar
     9     9    10   ar
    10    10    11   ar
    11    11    12   ar
    12    12    13   ar
    13    13    14   ar
    14    14    15   ar
    15    15    16   ar
    16    16    17   ar
    17    17    18   ar
    18    18    19   ar
    19    19    20    2
    20     4    21    1
    21    21    22   ar
    22    22    23   ar
    23    23    24   ar
    24    24    25   ar
    25    25    26   ar
    26    20     1    1
    27    26    21   ar
    28    19     3   ar
    29    18     6   ar
    30    17     9   ar
    31    15    11   ar
    32     1    27    1
    33     1    28    1
    34     2    29    1
    35     5    30    1
    36     8    31    1
    37    10    32    1
    38    12    33    1
    39    13    34    1
    40    16    35    1
    41    20    36    1
    42    22    37    1
    43    23    38    1
    44    24    39    1
    45    25    40    1
    46    26    41    1
