@<TRIPOS>MOLECULE
*****
 30 34 0 0 0
SMALL
GASTEIGER

@<TRIPOS>ATOM
      1 C          -4.1768    1.1715    0.7155 C.3     1  UNL1       -0.0081
      2 C          -5.5854    0.6713    0.5808 C.2     1  UNL1       -0.0797
      3 C          -5.5740   -0.5730    0.0882 C.2     1  UNL1       -0.0651
      4 C          -4.2120   -0.9857   -0.1361 C.2     1  UNL1       -0.0575
      5 C          -3.3576   -0.0040    0.2139 C.2     1  UNL1       -0.0298
      6 C          -1.9375   -0.1423    0.0956 C.ar    1  UNL1        0.0183
      7 C          -1.1824   -1.2337   -0.3639 C.ar    1  UNL1       -0.0232
      8 C           0.2048   -0.9424   -0.3135 C.ar    1  UNL1        0.0567
      9 N           1.4601   -1.4676   -0.5753 N.ar    1  UNL1       -0.3508
     10 C           2.3381   -0.5192   -0.2459 C.ar    1  UNL1        0.0901
     11 C           3.6385   -0.2504   -0.2005 C.ar    1  UNL1        0.0886
     12 N           4.7590   -0.9085   -0.5080 N.ar    1  UNL1       -0.3578
     13 C           5.7671   -0.0064   -0.2027 C.ar    1  UNL1        0.0042
     14 C           5.2407    1.1928    0.2884 C.ar    1  UNL1       -0.0203
     15 C           3.8367    1.0068    0.2802 C.ar    1  UNL1        0.0668
     16 N           2.5837    1.5235    0.5387 N.ar    1  UNL1       -0.3508
     17 C           1.7089    0.5638    0.2048 C.ar    1  UNL1        0.0813
     18 C           0.3964    0.3195    0.1695 C.ar    1  UNL1        0.0614
     19 S          -0.9285    1.2265    0.5833 S.2     1  UNL1       -0.0849
     20 H          -3.9484    1.4015    1.7610 H       1  UNL1        0.0356
     21 H          -4.0232    2.0603    0.0952 H       1  UNL1        0.0356
     22 H          -6.4649    1.2385    0.8446 H       1  UNL1        0.0575
     23 H          -6.4370   -1.1882   -0.1165 H       1  UNL1        0.0615
     24 H          -3.9648   -1.9589   -0.5322 H       1  UNL1        0.0621
     25 H          -1.6032   -2.1684   -0.7089 H       1  UNL1        0.0650
     26 H           1.6523   -2.3880   -0.9426 H       1  UNL1        0.1660
     27 H           4.8309   -1.8476   -0.8771 H       1  UNL1        0.1654
     28 H           6.7981   -0.2948   -0.3622 H       1  UNL1        0.0807
     29 H           5.8025    2.0617    0.6012 H       1  UNL1        0.0653
     30 H           2.3779    2.4414    0.9056 H       1  UNL1        0.1660
@<TRIPOS>BOND
     1     1     2    1
     2     2     3    2
     3     3     4    1
     4     4     5    2
     5     5     6    1
     6     6     7   ar
     7     7     8   ar
     8     8     9   ar
     9     9    10   ar
    10    10    11   ar
    11    11    12   ar
    12    12    13   ar
    13    13    14   ar
    14    14    15   ar
    15    15    16   ar
    16    16    17   ar
    17    17    18   ar
    18    18    19   ar
    19     5     1    1
    20    19     6   ar
    21    18     8   ar
    22    17    10   ar
    23    15    11   ar
    24     1    20    1
    25     1    21    1
    26     2    22    1
    27     3    23    1
    28     4    24    1
    29     7    25    1
    30     9    26    1
    31    12    27    1
    32    13    28    1
    33    14    29    1
    34    16    30    1
