@<TRIPOS>MOLECULE
*****
 50 57 0 0 0
SMALL
GASTEIGER

@<TRIPOS>ATOM
      1 C           5.5091    0.5429   -0.4904 C.3     1  UNL1        0.0000
      2 C           6.6461    1.1754    0.2640 C.2     1  UNL1        0.0000
      3 C           6.2261    1.5662    1.4762 C.2     1  UNL1        0.0000
      4 C           4.8311    1.2414    1.6289 C.2     1  UNL1        0.0000
      5 C           4.3879    0.6477    0.5088 C.2     1  UNL1        0.0000
      6 C           3.0527    0.1612    0.2434 C.ar    1  UNL1        0.0000
      7 C           2.0980    1.0520   -0.0986 C.ar    1  UNL1        0.0000
      8 C           0.6770    0.7273   -0.3616 C.ar    1  UNL1        0.0000
      9 C           0.2171   -0.5572   -0.1663 C.ar    1  UNL1        0.0000
     10 C          -1.2212   -0.7005   -0.1634 C.ar    1  UNL1        0.0000
     11 N          -1.8574   -1.8314    0.2854 N.ar    1  UNL1        0.0000
     12 C          -3.2276   -1.6678    0.2700 C.ar    1  UNL1        0.0000
     13 C          -4.2545   -2.5813    0.6097 C.ar    1  UNL1        0.0000
     14 C          -5.6001   -2.1770    0.6105 C.ar    1  UNL1        0.0000
     15 C          -5.7707   -0.8252    0.3229 C.ar    1  UNL1        0.0000
     16 C          -7.0174   -0.2419    0.3682 C.ar    1  UNL1        0.0000
     17 S          -6.9409    1.4558    0.0789 S.2     1  UNL1        0.0000
     18 C          -5.2268    1.4195   -0.1054 C.ar    1  UNL1        0.0000
     19 C          -4.7779    0.1353   -0.0097 C.ar    1  UNL1        0.0000
     20 C          -3.4246   -0.3430   -0.1034 C.ar    1  UNL1        0.0000
     21 C          -2.2017    0.2451   -0.4593 C.ar    1  UNL1        0.0000
     22 C          -1.7477    1.5001   -0.9573 C.ar    1  UNL1        0.0000
     23 C          -2.4331    2.4385   -1.6363 C.2     1  UNL1        0.0000
     24 SI         -1.3606    3.8927   -2.0701 Si      1  UNL1        0.0000
     25 C           0.0855    2.9719   -1.3385 C.2     1  UNL1        0.0000
     26 C          -0.2816    1.7705   -0.8359 C.ar    1  UNL1        0.0000
     27 C           1.2268   -1.6146    0.0727 C.ar    1  UNL1        0.0000
     28 C           1.0414   -2.9529    0.0191 C.2     1  UNL1        0.0000
     29 SI          2.6097   -3.8986    0.4139 Si      1  UNL1        0.0000
     30 C           3.4823   -2.2697    0.5510 C.2     1  UNL1        0.0000
     31 C           2.6444   -1.2370    0.3233 C.ar    1  UNL1        0.0000
     32 H           5.7417   -0.4964   -0.7411 H       1  UNL1        0.0000
     33 H           5.2889    1.1049   -1.4036 H       1  UNL1        0.0000
     34 H           7.6471    1.2912   -0.1232 H       1  UNL1        0.0000
     35 H           6.8226    2.0492    2.2351 H       1  UNL1        0.0000
     36 H           4.2534    1.4472    2.5175 H       1  UNL1        0.0000
     37 H           2.3659    2.1034   -0.1526 H       1  UNL1        0.0000
     38 H          -1.4062   -2.6502    0.6578 H       1  UNL1        0.0000
     39 H          -4.0060   -3.6049    0.8806 H       1  UNL1        0.0000
     40 H          -6.4026   -2.8573    0.8675 H       1  UNL1        0.0000
     41 H          -7.9729   -0.7016    0.5793 H       1  UNL1        0.0000
     42 H          -4.6938    2.3456   -0.2335 H       1  UNL1        0.0000
     43 H          -3.4580    2.4033   -1.9593 H       1  UNL1        0.0000
     44 H          -1.2245    4.0890   -3.5333 H       1  UNL1        0.0000
     45 H          -1.7080    5.1080   -1.2951 H       1  UNL1        0.0000
     46 H           1.0780    3.3797   -1.4322 H       1  UNL1        0.0000
     47 H           0.1608   -3.5096   -0.2436 H       1  UNL1        0.0000
     48 H           3.0735   -4.7116   -0.7353 H       1  UNL1        0.0000
     49 H           2.5060   -4.6163    1.7067 H       1  UNL1        0.0000
     50 H           4.5429   -2.2191    0.7400 H       1  UNL1        0.0000
@<TRIPOS>BOND
     1     1     2    1
     2     2     3    2
     3     3     4    1
     4     4     5    2
     5     5     6    1
     6     6     7   ar
     7     7     8   ar
     8     8     9   ar
     9     9    10   ar
    10    10    11   ar
    11    11    12   ar
    12    12    13   ar
    13    13    14   ar
    14    14    15   ar
    15    15    16   ar
    16    16    17   ar
    17    17    18   ar
    18    18    19   ar
    19    19    20   ar
    20    20    21   ar
    21    21    22   ar
    22    22    23    2
    23    23    24    1
    24    24    25    1
    25    25    26    2
    26     9    27   ar
    27    27    28    2
    28    28    29    1
    29    29    30    1
    30    30    31    2
    31     5     1    1
    32    31     6   ar
    33    26     8   ar
    34    31    27   ar
    35    21    10   ar
    36    26    22   ar
    37    20    12   ar
    38    19    15   ar
    39     1    32    1
    40     1    33    1
    41     2    34    1
    42     3    35    1
    43     4    36    1
    44     7    37    1
    45    11    38    1
    46    13    39    1
    47    14    40    1
    48    16    41    1
    49    18    42    1
    50    23    43    1
    51    24    44    1
    52    24    45    1
    53    25    46    1
    54    28    47    1
    55    29    48    1
    56    29    49    1
    57    30    50    1
