@<TRIPOS>MOLECULE
*****
 37 42 0 0 0
SMALL
GASTEIGER

@<TRIPOS>ATOM
      1 C          -4.5909    2.0682    0.2213 C.3     1  UNL1        0.0000
      2 C          -6.0483    1.7591    0.0406 C.2     1  UNL1        0.0000
      3 C          -6.1964    0.4681   -0.2797 C.2     1  UNL1        0.0000
      4 C          -4.9020   -0.1620   -0.3361 C.2     1  UNL1        0.0000
      5 C          -3.9314    0.7286   -0.0517 C.2     1  UNL1        0.0000
      6 C          -2.5469    0.3753   -0.0352 C.ar    1  UNL1        0.0000
      7 C          -1.9279   -0.8424   -0.2809 C.ar    1  UNL1        0.0000
      8 C          -0.5333   -0.7338   -0.1534 C.ar    1  UNL1        0.0000
      9 C           0.4090   -1.8071   -0.3412 C.ar    1  UNL1        0.0000
     10 C           0.1966   -3.1129   -0.6684 C.ar    1  UNL1        0.0000
     11 N           1.4567   -3.6763   -0.7113 N.ar    1  UNL1        0.0000
     12 C           2.4238   -2.7264   -0.4141 C.ar    1  UNL1        0.0000
     13 C           1.7806   -1.5337   -0.1761 C.ar    1  UNL1        0.0000
     14 C           2.3308   -0.3105    0.1561 C.ar    1  UNL1        0.0000
     15 C           1.3592    0.7289    0.3336 C.ar    1  UNL1        0.0000
     16 SI          2.2379    2.3580    0.7864 Si      1  UNL1        0.0000
     17 C           3.8992    1.4631    0.6937 C.ar    1  UNL1        0.0000
     18 C           5.2575    1.7046    0.8502 C.ar    1  UNL1        0.0000
     19 C           5.8704    0.4858    0.6038 C.ar    1  UNL1        0.0000
     20 N           4.9041   -0.4606    0.3075 N.ar    1  UNL1        0.0000
     21 C           3.6844    0.1402    0.3622 C.ar    1  UNL1        0.0000
     22 C          -0.0304    0.5187    0.1822 C.ar    1  UNL1        0.0000
     23 S          -1.3674    1.5916    0.3412 S.2     1  UNL1        0.0000
     24 H          -4.2662    2.8277   -0.4970 H       1  UNL1        0.0000
     25 H          -4.3933    2.4108    1.2419 H       1  UNL1        0.0000
     26 H          -6.8459    2.4773    0.1545 H       1  UNL1        0.0000
     27 H          -7.1290   -0.0412   -0.4699 H       1  UNL1        0.0000
     28 H          -4.7814   -1.2072   -0.5779 H       1  UNL1        0.0000
     29 H          -2.4606   -1.7485   -0.5360 H       1  UNL1        0.0000
     30 H          -0.6893   -3.6973   -0.8725 H       1  UNL1        0.0000
     31 H           1.6488   -4.6456   -0.9288 H       1  UNL1        0.0000
     32 H           3.4650   -3.0114   -0.4064 H       1  UNL1        0.0000
     33 H           2.0693    3.3941   -0.2666 H       1  UNL1        0.0000
     34 H           1.8928    2.8151    2.1586 H       1  UNL1        0.0000
     35 H           5.7591    2.6283    1.1073 H       1  UNL1        0.0000
     36 H           6.9148    0.2044    0.6126 H       1  UNL1        0.0000
     37 H           5.0802   -1.4309    0.0887 H       1  UNL1        0.0000
@<TRIPOS>BOND
     1     1     2    1
     2     2     3    2
     3     3     4    1
     4     4     5    2
     5     5     6    1
     6     6     7   ar
     7     7     8   ar
     8     8     9   ar
     9     9    10   ar
    10    10    11   ar
    11    11    12   ar
    12    12    13   ar
    13    13    14   ar
    14    14    15   ar
    15    15    16    1
    16    16    17    1
    17    17    18   ar
    18    18    19   ar
    19    19    20   ar
    20    20    21   ar
    21    15    22   ar
    22    22    23   ar
    23     5     1    1
    24    23     6   ar
    25    22     8   ar
    26    13     9   ar
    27    14    21    1
    28    21    17   ar
    29     1    24    1
    30     1    25    1
    31     2    26    1
    32     3    27    1
    33     4    28    1
    34     7    29    1
    35    10    30    1
    36    11    31    1
    37    12    32    1
    38    16    33    1
    39    16    34    1
    40    18    35    1
    41    19    36    1
    42    20    37    1
