@<TRIPOS>MOLECULE
*****
 48 55 0 0 0
SMALL
GASTEIGER

@<TRIPOS>ATOM
      1 C           4.9243   -0.2097    0.9055 C.3     1  UNL1        0.0000
      2 C           6.1902   -0.7512    0.2990 C.2     1  UNL1        0.0000
      3 C           5.9682   -1.1130   -0.9745 C.2     1  UNL1        0.0000
      4 C           4.5921   -0.8556   -1.3110 C.2     1  UNL1        0.0000
      5 C           3.9596   -0.3450   -0.2424 C.2     1  UNL1        0.0000
      6 C           2.5765    0.0660   -0.1565 C.ar    1  UNL1        0.0000
      7 C           1.6984   -0.7604    0.4502 C.ar    1  UNL1        0.0000
      8 C           0.2218   -0.5157    0.5512 C.ar    1  UNL1        0.0000
      9 C          -0.5964   -1.3364    1.3843 C.ar    1  UNL1        0.0000
     10 C          -0.0421   -2.2234    2.3508 C.ar    1  UNL1        0.0000
     11 C          -0.8209   -3.0070    3.2006 C.ar    1  UNL1        0.0000
     12 C          -2.1921   -2.9214    3.1185 C.ar    1  UNL1        0.0000
     13 C          -2.7689   -2.0590    2.1831 C.ar    1  UNL1        0.0000
     14 C          -2.0128   -1.2480    1.2856 C.ar    1  UNL1        0.0000
     15 C          -2.5930   -0.3861    0.2754 C.ar    1  UNL1        0.0000
     16 C          -4.0051   -0.3161    0.0265 C.ar    1  UNL1        0.0000
     17 O          -5.0204   -0.9607    0.7057 O.2     1  UNL1        0.0000
     18 C          -6.2092   -0.6198    0.1322 C.ar    1  UNL1        0.0000
     19 C          -6.0152    0.2382   -0.9283 C.ar    1  UNL1        0.0000
     20 C          -4.6304    0.4036   -0.9623 C.ar    1  UNL1        0.0000
     21 C          -3.8429    1.1368   -1.8711 C.ar    1  UNL1        0.0000
     22 N          -4.3808    1.7917   -2.8908 N.ar    1  UNL1        0.0000
     23 S          -3.0318    2.3819   -3.6836 S.2     1  UNL1        0.0000
     24 N          -1.8295    1.7895   -2.6919 N.ar    1  UNL1        0.0000
     25 C          -2.4078    1.1276   -1.6610 C.ar    1  UNL1        0.0000
     26 C          -1.7527    0.4460   -0.5504 C.ar    1  UNL1        0.0000
     27 C          -0.3553    0.4890   -0.2767 C.ar    1  UNL1        0.0000
     28 C           0.5890    1.5562   -0.7297 C.ar    1  UNL1        0.0000
     29 C           0.2760    2.8431   -1.0039 C.2     1  UNL1        0.0000
     30 SI          1.7697    3.8357   -1.5110 Si      1  UNL1        0.0000
     31 C           2.8099    2.3459   -1.1107 C.2     1  UNL1        0.0000
     32 C           2.0487    1.3082   -0.7052 C.ar    1  UNL1        0.0000
     33 H           5.0560    0.8392    1.1938 H       1  UNL1        0.0000
     34 H           4.6218   -0.7949    1.7798 H       1  UNL1        0.0000
     35 H           7.1308   -0.8277    0.8212 H       1  UNL1        0.0000
     36 H           6.6942   -1.5205   -1.6670 H       1  UNL1        0.0000
     37 H           4.1619   -1.0377   -2.2853 H       1  UNL1        0.0000
     38 H           2.0656   -1.7146    0.8156 H       1  UNL1        0.0000
     39 H           1.0329   -2.2973    2.4928 H       1  UNL1        0.0000
     40 H          -0.3510   -3.6670    3.9267 H       1  UNL1        0.0000
     41 H          -2.8233   -3.5148    3.7778 H       1  UNL1        0.0000
     42 H          -3.8533   -2.0400    2.1843 H       1  UNL1        0.0000
     43 H          -7.0853   -1.0694    0.5829 H       1  UNL1        0.0000
     44 H          -6.7704    0.6603   -1.5770 H       1  UNL1        0.0000
     45 H          -0.6918    3.3152   -0.9728 H       1  UNL1        0.0000
     46 H           2.0281    4.9711   -0.5913 H       1  UNL1        0.0000
     47 H           1.7794    4.1739   -2.9544 H       1  UNL1        0.0000
     48 H           3.8871    2.3933   -1.1350 H       1  UNL1        0.0000
@<TRIPOS>BOND
     1     1     2    1
     2     2     3    2
     3     3     4    1
     4     4     5    2
     5     5     6    1
     6     6     7   ar
     7     7     8   ar
     8     8     9   ar
     9     9    10   ar
    10    10    11   ar
    11    11    12   ar
    12    12    13   ar
    13    13    14   ar
    14    14    15   ar
    15    15    16   ar
    16    16    17   ar
    17    17    18   ar
    18    18    19   ar
    19    19    20   ar
    20    20    21   ar
    21    21    22   ar
    22    22    23   ar
    23    23    24   ar
    24    24    25   ar
    25    25    26   ar
    26    26    27   ar
    27    27    28   ar
    28    28    29    2
    29    29    30    1
    30    30    31    1
    31    31    32    2
    32     5     1    1
    33    32     6   ar
    34    27     8   ar
    35    32    28   ar
    36    14     9   ar
    37    26    15   ar
    38    20    16   ar
    39    25    21   ar
    40     1    33    1
    41     1    34    1
    42     2    35    1
    43     3    36    1
    44     4    37    1
    45     7    38    1
    46    10    39    1
    47    11    40    1
    48    12    41    1
    49    13    42    1
    50    18    43    1
    51    19    44    1
    52    29    45    1
    53    30    46    1
    54    30    47    1
    55    31    48    1
