@<TRIPOS>MOLECULE
*****
 43 49 0 0 0
SMALL
GASTEIGER

@<TRIPOS>ATOM
      1 C           4.2057   -0.1546    2.0646 C.3     1  UNL1       -0.0057
      2 C           5.6907   -0.3187    2.2131 C.2     1  UNL1       -0.0796
      3 C           6.2320   -0.6111    1.0234 C.2     1  UNL1       -0.0650
      4 C           5.1942   -0.6637    0.0246 C.2     1  UNL1       -0.0551
      5 C           3.9997   -0.4041    0.5876 C.2     1  UNL1       -0.0014
      6 C           2.7777   -0.3818   -0.1375 C.ar    1  UNL1        0.1326
      7 C           2.5144   -0.6003   -1.4891 C.ar    1  UNL1       -0.0077
      8 C           1.1407   -0.4472   -1.6199 C.ar    1  UNL1        0.0321
      9 C           0.2988   -0.5473   -2.7386 C.ar    1  UNL1        0.0313
     10 C           0.5921   -0.8270   -4.0329 C.ar    1  UNL1        0.1001
     11 O          -0.5902   -0.8027   -4.7218 O.2     1  UNL1       -0.4698
     12 C          -1.5872   -0.5056   -3.8212 C.ar    1  UNL1        0.1001
     13 C          -1.0772   -0.3343   -2.5509 C.ar    1  UNL1        0.0303
     14 C          -1.7329   -0.0233   -1.3401 C.ar    1  UNL1        0.0209
     15 C          -3.1128    0.1875   -1.1669 C.ar    1  UNL1        0.0557
     16 N          -4.1672    0.1576   -2.0574 N.ar    1  UNL1       -0.3601
     17 C          -5.3512    0.4275   -1.4329 C.ar    1  UNL1        0.0028
     18 C          -5.0750    0.6393   -0.1072 C.ar    1  UNL1       -0.0361
     19 C          -3.6636    0.4924    0.0843 C.ar    1  UNL1        0.0080
     20 C          -2.8103    0.5945    1.2222 C.ar    1  UNL1       -0.0080
     21 C          -3.4013    0.9040    2.4700 C.ar    1  UNL1       -0.0534
     22 C          -2.6295    1.0191    3.6214 C.ar    1  UNL1       -0.0611
     23 C          -1.2606    0.8274    3.5433 C.ar    1  UNL1       -0.0611
     24 C          -0.6657    0.5209    2.3143 C.ar    1  UNL1       -0.0533
     25 C          -1.4089    0.3922    1.1097 C.ar    1  UNL1       -0.0059
     26 C          -0.8630    0.0800   -0.1840 C.ar    1  UNL1        0.0354
     27 C           0.5454   -0.1458   -0.4186 C.ar    1  UNL1        0.1447
     28 O           1.5731   -0.1084    0.4924 O.2     1  UNL1       -0.4545
     29 H           3.8938    0.8565    2.3449 H       1  UNL1        0.0357
     30 H           3.6682   -0.8901    2.6714 H       1  UNL1        0.0357
     31 H           6.2283   -0.2143    3.1432 H       1  UNL1        0.0575
     32 H           7.2786   -0.7839    0.8223 H       1  UNL1        0.0615
     33 H           5.3958   -0.8838   -1.0127 H       1  UNL1        0.0621
     34 H           3.2425   -0.8366   -2.2508 H       1  UNL1        0.0662
     35 H           1.4789   -1.0490   -4.6082 H       1  UNL1        0.1036
     36 H          -2.5634   -0.4642   -4.2753 H       1  UNL1        0.1036
     37 H          -4.0915   -0.0361   -3.0422 H       1  UNL1        0.1654
     38 H          -6.2827    0.4453   -1.9827 H       1  UNL1        0.0807
     39 H          -5.8113    0.8758    0.6492 H       1  UNL1        0.0639
     40 H          -4.4733    1.0590    2.5576 H       1  UNL1        0.0624
     41 H          -3.0974    1.2571    4.5723 H       1  UNL1        0.0618
     42 H          -0.6449    0.9141    4.4347 H       1  UNL1        0.0618
     43 H           0.4104    0.3837    2.3256 H       1  UNL1        0.0624
@<TRIPOS>BOND
     1     1     2    1
     2     2     3    2
     3     3     4    1
     4     4     5    2
     5     5     6    1
     6     6     7   ar
     7     7     8   ar
     8     8     9   ar
     9     9    10   ar
    10    10    11   ar
    11    11    12   ar
    12    12    13   ar
    13    13    14   ar
    14    14    15   ar
    15    15    16   ar
    16    16    17   ar
    17    17    18   ar
    18    18    19   ar
    19    19    20   ar
    20    20    21   ar
    21    21    22   ar
    22    22    23   ar
    23    23    24   ar
    24    24    25   ar
    25    25    26   ar
    26    26    27   ar
    27    27    28   ar
    28     5     1    1
    29    28     6   ar
    30    27     8   ar
    31    13     9   ar
    32    26    14   ar
    33    19    15   ar
    34    25    20   ar
    35     1    29    1
    36     1    30    1
    37     2    31    1
    38     3    32    1
    39     4    33    1
    40     7    34    1
    41    10    35    1
    42    12    36    1
    43    16    37    1
    44    17    38    1
    45    18    39    1
    46    21    40    1
    47    22    41    1
    48    23    42    1
    49    24    43    1
