@<TRIPOS>MOLECULE
*****
 44 50 0 0 0
SMALL
GASTEIGER

@<TRIPOS>ATOM
      1 C           5.8923   -0.7664    0.1892 C.3     1  UNL1        0.0000
      2 C           7.2921   -0.2833   -0.0669 C.2     1  UNL1        0.0000
      3 C           7.2569    0.9690   -0.5421 C.2     1  UNL1        0.0000
      4 C           5.8880    1.4042   -0.6374 C.2     1  UNL1        0.0000
      5 C           5.0665    0.4232   -0.2214 C.2     1  UNL1        0.0000
      6 C           3.6041    0.4742   -0.1660 C.ar    1  UNL1        0.0000
      7 C           2.8467   -0.6025    0.2852 C.ar    1  UNL1        0.0000
      8 C           1.4366   -0.4903    0.3144 C.ar    1  UNL1        0.0000
      9 C           0.4922   -1.4496    0.7708 C.ar    1  UNL1        0.0000
     10 C           0.8606   -2.6672    1.3075 C.ar    1  UNL1        0.0000
     11 S          -0.4905   -3.5724    1.8771 S.2     1  UNL1        0.0000
     12 C          -1.5961   -2.3400    1.4130 C.ar    1  UNL1        0.0000
     13 C          -0.9274   -1.3292    0.7877 C.ar    1  UNL1        0.0000
     14 C          -1.4975   -0.1250    0.2529 C.ar    1  UNL1        0.0000
     15 C          -0.5938    0.8725   -0.1189 C.ar    1  UNL1        0.0000
     16 N          -1.3840    1.9659   -0.4358 N.ar    1  UNL1        0.0000
     17 C          -2.7051    1.6415   -0.3030 C.ar    1  UNL1        0.0000
     18 C          -3.7360    2.6000   -0.4924 C.ar    1  UNL1        0.0000
     19 C          -5.0027    2.1558   -0.3695 C.ar    1  UNL1        0.0000
     20 C          -5.2654    0.7387   -0.1271 C.ar    1  UNL1        0.0000
     21 C          -6.5023    0.2049   -0.1207 C.2     1  UNL1        0.0000
     22 SI         -6.4228   -1.6529    0.0267 Si      1  UNL1        0.0000
     23 C          -4.5569   -1.5296    0.0475 C.2     1  UNL1        0.0000
     24 C          -4.1455   -0.2481    0.0377 C.ar    1  UNL1        0.0000
     25 C          -2.8164    0.2934    0.0195 C.ar    1  UNL1        0.0000
     26 C           0.8294    0.7118   -0.1174 C.ar    1  UNL1        0.0000
     27 C           1.6847    1.7293   -0.5456 C.ar    1  UNL1        0.0000
     28 N           3.0356    1.6345   -0.5772 N.ar    1  UNL1        0.0000
     29 H           5.6723   -1.6453   -0.4253 H       1  UNL1        0.0000
     30 H           5.7587   -1.0077    1.2486 H       1  UNL1        0.0000
     31 H           8.1842   -0.8650    0.1086 H       1  UNL1        0.0000
     32 H           8.1062    1.5758   -0.8170 H       1  UNL1        0.0000
     33 H           5.5862    2.3786   -0.9934 H       1  UNL1        0.0000
     34 H           3.3278   -1.5148    0.6143 H       1  UNL1        0.0000
     35 H           1.8468   -3.0891    1.4347 H       1  UNL1        0.0000
     36 H          -2.6368   -2.4424    1.6687 H       1  UNL1        0.0000
     37 H          -1.0331    2.8747   -0.7012 H       1  UNL1        0.0000
     38 H          -3.5206    3.6422   -0.6995 H       1  UNL1        0.0000
     39 H          -5.8429    2.8310   -0.4898 H       1  UNL1        0.0000
     40 H          -7.4395    0.7214   -0.2525 H       1  UNL1        0.0000
     41 H          -6.9314   -2.3395   -1.1849 H       1  UNL1        0.0000
     42 H          -6.9692   -2.1442    1.3145 H       1  UNL1        0.0000
     43 H          -3.9608   -2.4233    0.0244 H       1  UNL1        0.0000
     44 H           1.3088    2.6852   -0.8961 H       1  UNL1        0.0000
@<TRIPOS>BOND
     1     1     2    1
     2     2     3    2
     3     3     4    1
     4     4     5    2
     5     5     6    1
     6     6     7   ar
     7     7     8   ar
     8     8     9   ar
     9     9    10   ar
    10    10    11   ar
    11    11    12   ar
    12    12    13   ar
    13    13    14   ar
    14    14    15   ar
    15    15    16   ar
    16    16    17   ar
    17    17    18   ar
    18    18    19   ar
    19    19    20   ar
    20    20    21    2
    21    21    22    1
    22    22    23    1
    23    23    24    2
    24    24    25   ar
    25    15    26   ar
    26    26    27   ar
    27    27    28   ar
    28     5     1    1
    29    28     6   ar
    30    26     8   ar
    31    13     9   ar
    32    25    14   ar
    33    25    17   ar
    34    24    20   ar
    35     1    29    1
    36     1    30    1
    37     2    31    1
    38     3    32    1
    39     4    33    1
    40     7    34    1
    41    10    35    1
    42    12    36    1
    43    16    37    1
    44    18    38    1
    45    19    39    1
    46    21    40    1
    47    22    41    1
    48    22    42    1
    49    23    43    1
    50    27    44    1
