@<TRIPOS>MOLECULE
*****
 35 40 0 0 0
SMALL
GASTEIGER

@<TRIPOS>ATOM
      1 C           4.2467    1.8618    0.1155 C.3     1  UNL1       -0.0057
      2 C           5.7353    1.6764    0.1835 C.2     1  UNL1       -0.0796
      3 C           6.0235    0.3703    0.2526 C.2     1  UNL1       -0.0650
      4 C           4.8001   -0.3917    0.2369 C.2     1  UNL1       -0.0551
      5 C           3.7425    0.4368    0.1580 C.2     1  UNL1       -0.0014
      6 C           2.3936   -0.0109    0.1235 C.ar    1  UNL1        0.1328
      7 C           1.8597   -1.3072    0.1579 C.ar    1  UNL1       -0.0077
      8 C           0.4801   -1.1485    0.0960 C.ar    1  UNL1        0.0327
      9 C          -0.6094   -2.0681    0.0919 C.ar    1  UNL1        0.0007
     10 C          -0.4636   -3.4262    0.1560 C.ar    1  UNL1       -0.0159
     11 S          -2.0227   -4.1827    0.1262 S.2     1  UNL1       -0.1038
     12 C          -2.8580   -2.6672    0.0279 C.ar    1  UNL1       -0.0159
     13 C          -1.9528   -1.6426    0.0200 C.ar    1  UNL1        0.0010
     14 C          -2.3077   -0.2669   -0.0532 C.ar    1  UNL1        0.0361
     15 C          -3.4959    0.4189   -0.1300 C.ar    1  UNL1        0.0100
     16 C          -4.9638    0.2955   -0.1833 C.3     1  UNL1       -0.0049
     17 C          -5.3511    1.7858   -0.2627 C.2     1  UNL1       -0.0761
     18 C          -4.2691    2.6013   -0.2545 C.2     1  UNL1       -0.0226
     19 C          -3.1450    1.7565   -0.1734 C.ar    1  UNL1        0.1325
     20 O          -1.7957    1.9262   -0.1268 O.2     1  UNL1       -0.4514
     21 C          -1.2818    0.6574   -0.0519 C.ar    1  UNL1        0.1791
     22 C           0.1825    0.1833    0.0269 C.ar    1  UNL1        0.1789
     23 O           1.3368    0.8927    0.0425 O.2     1  UNL1       -0.4514
     24 H           3.9569    2.3593   -0.8153 H       1  UNL1        0.0357
     25 H           3.8850    2.4381    0.9729 H       1  UNL1        0.0357
     26 H           6.4531    2.4826    0.1769 H       1  UNL1        0.0575
     27 H           7.0099   -0.0645    0.3114 H       1  UNL1        0.0615
     28 H           4.7861   -1.4699    0.2839 H       1  UNL1        0.0621
     29 H           2.4295   -2.2225    0.2199 H       1  UNL1        0.0662
     30 H           0.4316   -4.0289    0.2176 H       1  UNL1        0.0700
     31 H          -3.9374   -2.6447   -0.0162 H       1  UNL1        0.0700
     32 H          -5.3031   -0.2395   -1.0743 H       1  UNL1        0.0357
     33 H          -5.3747   -0.1625    0.7204 H       1  UNL1        0.0357
     34 H          -6.3762    2.1229   -0.3180 H       1  UNL1        0.0576
     35 H          -4.2448    3.6786   -0.2997 H       1  UNL1        0.0651
@<TRIPOS>BOND
     1     1     2    1
     2     2     3    2
     3     3     4    1
     4     4     5    2
     5     5     6    1
     6     6     7   ar
     7     7     8   ar
     8     8     9   ar
     9     9    10   ar
    10    10    11   ar
    11    11    12   ar
    12    12    13   ar
    13    13    14   ar
    14    14    15   ar
    15    15    16    1
    16    16    17    1
    17    17    18    2
    18    18    19    1
    19    19    20   ar
    20    20    21   ar
    21    21    22   ar
    22    22    23   ar
    23     5     1    1
    24    23     6   ar
    25    22     8   ar
    26    13     9   ar
    27    21    14   ar
    28    19    15   ar
    29     1    24    1
    30     1    25    1
    31     2    26    1
    32     3    27    1
    33     4    28    1
    34     7    29    1
    35    10    30    1
    36    12    31    1
    37    16    32    1
    38    16    33    1
    39    17    34    1
    40    18    35    1
