@<TRIPOS>MOLECULE
*****
 44 50 0 0 0
SMALL
GASTEIGER

@<TRIPOS>ATOM
      1 C          -4.9778    0.9575   -0.7911 C.3     1  UNL1        0.0000
      2 C          -6.1115    0.6450   -1.7301 C.2     1  UNL1        0.0000
      3 C          -5.7446   -0.3251   -2.5819 C.2     1  UNL1        0.0000
      4 C          -4.3859   -0.7161   -2.3065 C.2     1  UNL1        0.0000
      5 C          -3.9107    0.0139   -1.2832 C.2     1  UNL1        0.0000
      6 C          -2.5915   -0.0576   -0.6937 C.ar    1  UNL1        0.0000
      7 C          -1.7530    0.9826   -0.8847 C.ar    1  UNL1        0.0000
      8 C          -0.3609    0.9885   -0.3957 C.ar    1  UNL1        0.0000
      9 C           0.4260    2.1508   -0.6003 C.ar    1  UNL1        0.0000
     10 N          -0.0021    3.3145   -1.1315 N.ar    1  UNL1        0.0000
     11 S           1.2747    4.3573   -1.1005 S.2     1  UNL1        0.0000
     12 N           2.4298    3.3824   -0.4475 N.ar    1  UNL1        0.0000
     13 C           1.8849    2.1715   -0.2237 C.ar    1  UNL1        0.0000
     14 C           2.5458    0.9867    0.2783 C.ar    1  UNL1        0.0000
     15 C           1.7071   -0.1766    0.4320 C.ar    1  UNL1        0.0000
     16 C           2.3909   -1.3667    0.7517 C.ar    1  UNL1        0.0000
     17 C           3.7591   -1.4084    1.0183 C.ar    1  UNL1        0.0000
     18 C           4.5292   -0.2489    0.9491 C.ar    1  UNL1        0.0000
     19 C           5.9010   -0.3041    1.2398 C.ar    1  UNL1        0.0000
     20 C           6.6766    0.8401    1.1497 C.ar    1  UNL1        0.0000
     21 C           6.0477    2.0013    0.7645 C.ar    1  UNL1        0.0000
     22 N           4.7304    2.0776    0.4794 N.ar    1  UNL1        0.0000
     23 C           3.9461    0.9761    0.5661 C.ar    1  UNL1        0.0000
     24 C           0.2720   -0.1330    0.2196 C.ar    1  UNL1        0.0000
     25 C          -0.7005   -1.2086    0.6270 C.ar    1  UNL1        0.0000
     26 C          -0.5144   -2.1598    1.5704 C.2     1  UNL1        0.0000
     27 SI         -2.0153   -3.2581    1.7842 Si      1  UNL1        0.0000
     28 C          -2.8981   -2.1633    0.5786 C.2     1  UNL1        0.0000
     29 C          -2.1019   -1.1740    0.1161 C.ar    1  UNL1        0.0000
     30 H          -5.2594    0.7253    0.2428 H       1  UNL1        0.0000
     31 H          -4.6776    2.0088   -0.8720 H       1  UNL1        0.0000
     32 H          -7.0743    1.1311   -1.7010 H       1  UNL1        0.0000
     33 H          -6.3547   -0.7696   -3.3532 H       1  UNL1        0.0000
     34 H          -3.8490   -1.4752   -2.8581 H       1  UNL1        0.0000
     35 H          -2.0720    1.8426   -1.4667 H       1  UNL1        0.0000
     36 H           1.8778   -2.3252    0.7517 H       1  UNL1        0.0000
     37 H           4.2147   -2.3667    1.2694 H       1  UNL1        0.0000
     38 H           6.3711   -1.2405    1.5369 H       1  UNL1        0.0000
     39 H           7.7372    0.8234    1.3698 H       1  UNL1        0.0000
     40 H           6.5919    2.9346    0.6708 H       1  UNL1        0.0000
     41 H           0.3391   -2.3309    2.2039 H       1  UNL1        0.0000
     42 H          -1.7770   -4.6286    1.2652 H       1  UNL1        0.0000
     43 H          -2.5702   -3.1784    3.1558 H       1  UNL1        0.0000
     44 H          -3.9508   -2.2965    0.3800 H       1  UNL1        0.0000
@<TRIPOS>BOND
     1     1     2    1
     2     2     3    2
     3     3     4    1
     4     4     5    2
     5     5     6    1
     6     6     7   ar
     7     7     8   ar
     8     8     9   ar
     9     9    10   ar
    10    10    11   ar
    11    11    12   ar
    12    12    13   ar
    13    13    14   ar
    14    14    15   ar
    15    15    16   ar
    16    16    17   ar
    17    17    18   ar
    18    18    19   ar
    19    19    20   ar
    20    20    21   ar
    21    21    22   ar
    22    22    23   ar
    23    15    24   ar
    24    24    25   ar
    25    25    26    2
    26    26    27    1
    27    27    28    1
    28    28    29    2
    29     5     1    1
    30    29     6   ar
    31    24     8   ar
    32    29    25   ar
    33    13     9   ar
    34    23    14   ar
    35    23    18   ar
    36     1    30    1
    37     1    31    1
    38     2    32    1
    39     3    33    1
    40     4    34    1
    41     7    35    1
    42    16    36    1
    43    17    37    1
    44    19    38    1
    45    20    39    1
    46    21    40    1
    47    26    41    1
    48    27    42    1
    49    27    43    1
    50    28    44    1
