@<TRIPOS>MOLECULE
*****
 41 47 0 0 0
SMALL
GASTEIGER

@<TRIPOS>ATOM
      1 C          -4.5724    1.9124   -0.6340 C.3     1  UNL1       -0.0086
      2 C          -6.0494    1.6593   -0.7500 C.2     1  UNL1       -0.0797
      3 C          -6.3043    0.3610   -0.5382 C.2     1  UNL1       -0.0651
      4 C          -5.0699   -0.3316   -0.2726 C.2     1  UNL1       -0.0580
      5 C          -4.0460    0.5387   -0.3042 C.2     1  UNL1       -0.0359
      6 C          -2.6308    0.2675   -0.1177 C.ar    1  UNL1       -0.0118
      7 C          -1.6093    0.8345   -0.9083 C.ar    1  UNL1       -0.0438
      8 C          -0.1948    0.5686   -0.7312 C.ar    1  UNL1        0.0126
      9 C           0.7630    1.1781   -1.5893 C.ar    1  UNL1        0.1082
     10 N           0.4926    2.0278   -2.6062 N.ar    1  UNL1       -0.1901
     11 S           1.9468    2.4554   -3.2978 S.2     1  UNL1        0.1165
     12 N           2.9968    1.5852   -2.3395 N.ar    1  UNL1       -0.1901
     13 C           2.1963    0.9643   -1.4842 C.ar    1  UNL1        0.1093
     14 C           2.6882    0.0809   -0.4490 C.ar    1  UNL1        0.0257
     15 C           4.0720   -0.2217   -0.2310 C.ar    1  UNL1       -0.0009
     16 C           5.2811    0.1795   -0.8616 C.ar    1  UNL1       -0.0529
     17 C           6.5214   -0.2928   -0.4184 C.ar    1  UNL1       -0.0611
     18 C           6.5929   -1.1676    0.6524 C.ar    1  UNL1       -0.0607
     19 C           5.4289   -1.5841    1.2967 C.ar    1  UNL1       -0.0474
     20 C           4.1812   -1.1044    0.8452 C.ar    1  UNL1        0.0206
     21 S           2.6495   -1.5015    1.5060 S.2     1  UNL1       -0.0875
     22 C           1.7621   -0.5193    0.3972 C.ar    1  UNL1        0.0310
     23 C           0.3614   -0.2966    0.2795 C.ar    1  UNL1        0.0078
     24 C          -0.6796   -0.8287    1.0690 C.ar    1  UNL1        0.0088
     25 C          -0.5918   -1.6682    2.1562 C.ar    1  UNL1        0.0100
     26 N          -1.8651   -1.8948    2.6301 N.ar    1  UNL1       -0.3659
     27 C          -2.7798   -1.2113    1.8693 C.ar    1  UNL1        0.0100
     28 C          -2.0885   -0.5581    0.8759 C.ar    1  UNL1        0.0074
     29 H          -4.3629    2.6259    0.1693 H       1  UNL1        0.0356
     30 H          -4.1769    2.2912   -1.5814 H       1  UNL1        0.0356
     31 H          -6.7839    2.4176   -0.9745 H       1  UNL1        0.0575
     32 H          -7.2735   -0.1132   -0.5620 H       1  UNL1        0.0615
     33 H          -5.0081   -1.3956   -0.1009 H       1  UNL1        0.0620
     34 H          -1.9006    1.5021   -1.7214 H       1  UNL1        0.0630
     35 H           5.2651    0.8649   -1.7053 H       1  UNL1        0.0624
     36 H           7.4301    0.0312   -0.9201 H       1  UNL1        0.0618
     37 H           7.5588   -1.5321    0.9933 H       1  UNL1        0.0618
     38 H           5.4851   -2.2709    2.1370 H       1  UNL1        0.0629
     39 H           0.2358   -2.1325    2.6695 H       1  UNL1        0.0813
     40 H          -2.0902   -2.4674    3.4336 H       1  UNL1        0.1648
     41 H          -3.8310   -1.2537    2.1185 H       1  UNL1        0.0813
@<TRIPOS>BOND
     1     1     2    1
     2     2     3    2
     3     3     4    1
     4     4     5    2
     5     5     6    1
     6     6     7   ar
     7     7     8   ar
     8     8     9   ar
     9     9    10   ar
    10    10    11   ar
    11    11    12   ar
    12    12    13   ar
    13    13    14   ar
    14    14    15   ar
    15    15    16   ar
    16    16    17   ar
    17    17    18   ar
    18    18    19   ar
    19    19    20   ar
    20    20    21   ar
    21    21    22   ar
    22    22    23   ar
    23    23    24   ar
    24    24    25   ar
    25    25    26   ar
    26    26    27   ar
    27    27    28   ar
    28     5     1    1
    29    28     6   ar
    30    23     8   ar
    31    28    24   ar
    32    13     9   ar
    33    22    14   ar
    34    20    15   ar
    35     1    29    1
    36     1    30    1
    37     2    31    1
    38     3    32    1
    39     4    33    1
    40     7    34    1
    41    16    35    1
    42    17    36    1
    43    18    37    1
    44    19    38    1
    45    25    39    1
    46    26    40    1
    47    27    41    1
