@<TRIPOS>MOLECULE
*****
 44 51 0 0 0
SMALL
GASTEIGER

@<TRIPOS>ATOM
      1 C           5.7026   -0.6717    0.6505 C.3     1  UNL1       -0.0086
      2 C           7.0081    0.0307    0.4058 C.2     1  UNL1       -0.0797
      3 C           6.7807    1.2181   -0.1676 C.2     1  UNL1       -0.0651
      4 C           5.3634    1.3954   -0.3492 C.2     1  UNL1       -0.0579
      5 C           4.6960    0.3167    0.1053 C.2     1  UNL1       -0.0344
      6 C           3.2425    0.1120    0.0938 C.ar    1  UNL1        0.0073
      7 C           2.3471    0.9716   -0.5630 C.ar    1  UNL1       -0.0423
      8 C           0.9213    0.8121   -0.5813 C.ar    1  UNL1        0.0137
      9 C           0.1505    1.7175   -1.3771 C.ar    1  UNL1        0.1083
     10 N           0.6702    2.7265   -2.1051 N.ar    1  UNL1       -0.1901
     11 S          -0.5770    3.4609   -2.8911 S.2     1  UNL1        0.1165
     12 N          -1.8294    2.5538   -2.3431 N.ar    1  UNL1       -0.1901
     13 C          -1.3538    1.6128   -1.5043 C.ar    1  UNL1        0.1102
     14 C          -2.1274    0.6338   -0.7787 C.ar    1  UNL1        0.0375
     15 C          -3.5870    0.5764   -0.9557 C.ar    1  UNL1        0.0814
     16 N          -4.2369    1.3281   -1.8747 N.ar    1  UNL1       -0.2543
     17 C          -5.5813    1.2521   -2.0239 C.ar    1  UNL1        0.0283
     18 C          -6.3962    0.4303   -1.2787 C.ar    1  UNL1       -0.0430
     19 C          -5.7899   -0.3578   -0.3203 C.ar    1  UNL1       -0.0505
     20 C          -4.3855   -0.2866   -0.1614 C.ar    1  UNL1        0.0102
     21 C          -3.6284   -0.9912    0.7901 C.ar    1  UNL1        0.0092
     22 C          -4.1383   -1.8065    1.7737 C.ar    1  UNL1        0.0101
     23 N          -3.0823   -2.2003    2.5543 N.ar    1  UNL1       -0.3659
     24 C          -1.9228   -1.6248    2.0874 C.ar    1  UNL1        0.0100
     25 C          -2.2048   -0.9465    0.9238 C.ar    1  UNL1        0.0085
     26 C          -1.3030   -0.2017    0.1048 C.ar    1  UNL1        0.0053
     27 C           0.1839   -0.1984    0.1090 C.ar    1  UNL1        0.0209
     28 C           1.0905   -1.1809    0.6893 C.ar    1  UNL1        0.1088
     29 N           0.7372   -2.3676    1.2138 N.ar    1  UNL1       -0.1901
     30 S           2.0922   -3.1295    1.7505 S.2     1  UNL1        0.1165
     31 N           3.2366   -2.0293    1.3205 N.ar    1  UNL1       -0.1902
     32 C           2.6154   -1.0109    0.6973 C.ar    1  UNL1        0.1079
     33 H           5.5727   -0.8411    1.7239 H       1  UNL1        0.0356
     34 H           5.6787   -1.6207    0.1055 H       1  UNL1        0.0356
     35 H           7.9760   -0.3724    0.6619 H       1  UNL1        0.0575
     36 H           7.5266    1.9424   -0.4577 H       1  UNL1        0.0615
     37 H           4.9502    2.2885   -0.7929 H       1  UNL1        0.0620
     38 H           2.7642    1.8159   -1.1156 H       1  UNL1        0.0631
     39 H          -5.9904    1.9015   -2.7930 H       1  UNL1        0.0830
     40 H          -7.4673    0.4091   -1.4379 H       1  UNL1        0.0633
     41 H          -6.3918   -1.0169    0.2961 H       1  UNL1        0.0625
     42 H          -5.1445   -2.1149    2.0219 H       1  UNL1        0.0813
     43 H          -3.1497   -2.7771    3.3834 H       1  UNL1        0.1648
     44 H          -1.0190   -1.7595    2.6608 H       1  UNL1        0.0813
@<TRIPOS>BOND
     1     1     2    1
     2     2     3    2
     3     3     4    1
     4     4     5    2
     5     5     6    1
     6     6     7   ar
     7     7     8   ar
     8     8     9   ar
     9     9    10   ar
    10    10    11   ar
    11    11    12   ar
    12    12    13   ar
    13    13    14   ar
    14    14    15   ar
    15    15    16   ar
    16    16    17   ar
    17    17    18   ar
    18    18    19   ar
    19    19    20   ar
    20    20    21   ar
    21    21    22   ar
    22    22    23   ar
    23    23    24   ar
    24    24    25   ar
    25    25    26   ar
    26    26    27   ar
    27    27    28   ar
    28    28    29   ar
    29    29    30   ar
    30    30    31   ar
    31    31    32   ar
    32     5     1    1
    33    32     6   ar
    34    27     8   ar
    35    32    28   ar
    36    13     9   ar
    37    26    14   ar
    38    20    15   ar
    39    25    21   ar
    40     1    33    1
    41     1    34    1
    42     2    35    1
    43     3    36    1
    44     4    37    1
    45     7    38    1
    46    17    39    1
    47    18    40    1
    48    19    41    1
    49    22    42    1
    50    23    43    1
    51    24    44    1
