@<TRIPOS>MOLECULE
*****
 42 47 0 0 0
SMALL
GASTEIGER

@<TRIPOS>ATOM
      1 SI          1.1387    2.5063   -2.3920 Si      1  UNL1        0.0000
      2 C           2.3806    1.6027   -1.3450 C.2     1  UNL1        0.0000
      3 C           1.8139    0.5864   -0.6604 C.ar    1  UNL1        0.0000
      4 C           2.5624   -0.4223    0.0920 C.ar    1  UNL1        0.0000
      5 C           1.8842   -1.5171    0.4959 C.ar    1  UNL1        0.0000
      6 C           0.4339   -1.6941    0.2854 C.ar    1  UNL1        0.0000
      7 N          -0.0195   -2.9171    0.6248 N.ar    1  UNL1        0.0000
      8 C          -1.3455   -3.1077    0.5085 C.ar    1  UNL1        0.0000
      9 C          -2.2711   -2.1107    0.2024 C.ar    1  UNL1        0.0000
     10 C          -3.6300   -2.4380    0.1421 C.ar    1  UNL1        0.0000
     11 C          -4.5869   -1.4575   -0.0803 C.ar    1  UNL1        0.0000
     12 C          -4.2174   -0.1160   -0.1435 C.ar    1  UNL1        0.0000
     13 C          -5.2226    0.8619   -0.2417 C.ar    1  UNL1        0.0000
     14 C          -4.9134    2.2169   -0.1890 C.ar    1  UNL1        0.0000
     15 C          -3.5970    2.6042   -0.0069 C.ar    1  UNL1        0.0000
     16 C          -2.5919    1.6346    0.0714 C.ar    1  UNL1        0.0000
     17 C          -2.8460    0.2467   -0.0616 C.ar    1  UNL1        0.0000
     18 C          -1.8196   -0.7874   -0.0266 C.ar    1  UNL1        0.0000
     19 C          -0.3953   -0.6412   -0.1626 C.ar    1  UNL1        0.0000
     20 C           0.3422    0.4661   -0.8377 C.ar    1  UNL1        0.0000
     21 C          -0.1499    1.3002   -1.7797 C.2     1  UNL1        0.0000
     22 C           3.9493   -0.3447    0.4130 C.ar    1  UNL1        0.0000
     23 C           4.7186    0.5951    1.0722 C.ar    1  UNL1        0.0000
     24 C           6.0595    0.1402    1.0636 C.ar    1  UNL1        0.0000
     25 C           6.0801   -1.0594    0.3892 C.ar    1  UNL1        0.0000
     26 N           4.7985   -1.3433   -0.0076 N.ar    1  UNL1        0.0000
     27 H           1.3998    2.3634   -3.8443 H       1  UNL1        0.0000
     28 H           0.8817    3.8866   -1.9147 H       1  UNL1        0.0000
     29 H           3.4313    1.8427   -1.3986 H       1  UNL1        0.0000
     30 H           2.3614   -2.3151    1.0567 H       1  UNL1        0.0000
     31 H          -1.6637   -4.1275    0.7139 H       1  UNL1        0.0000
     32 H          -3.9606   -3.4670    0.2723 H       1  UNL1        0.0000
     33 H          -5.6338   -1.7495   -0.1320 H       1  UNL1        0.0000
     34 H          -6.2678    0.5720   -0.3317 H       1  UNL1        0.0000
     35 H          -5.7018    2.9617   -0.2514 H       1  UNL1        0.0000
     36 H          -3.3433    3.6567    0.0888 H       1  UNL1        0.0000
     37 H          -1.5856    1.9880    0.2824 H       1  UNL1        0.0000
     38 H          -1.1482    1.3286   -2.1860 H       1  UNL1        0.0000
     39 H           4.3479    1.5100    1.5163 H       1  UNL1        0.0000
     40 H           6.9166    0.6367    1.4997 H       1  UNL1        0.0000
     41 H           6.8930   -1.7333    0.1547 H       1  UNL1        0.0000
     42 H           4.5175   -2.1585   -0.5369 H       1  UNL1        0.0000
@<TRIPOS>BOND
     1     1     2    1
     2     2     3    2
     3     3     4   ar
     4     4     5   ar
     5     5     6   ar
     6     6     7   ar
     7     7     8   ar
     8     8     9   ar
     9     9    10   ar
    10    10    11   ar
    11    11    12   ar
    12    12    13   ar
    13    13    14   ar
    14    14    15   ar
    15    15    16   ar
    16    16    17   ar
    17    17    18   ar
    18    18    19   ar
    19    19    20   ar
    20    20    21    2
    21     4    22    1
    22    22    23   ar
    23    23    24   ar
    24    24    25   ar
    25    25    26   ar
    26    21     1    1
    27    26    22   ar
    28    20     3   ar
    29    19     6   ar
    30    18     9   ar
    31    17    12   ar
    32     1    27    1
    33     1    28    1
    34     2    29    1
    35     5    30    1
    36     8    31    1
    37    10    32    1
    38    11    33    1
    39    13    34    1
    40    14    35    1
    41    15    36    1
    42    16    37    1
    43    21    38    1
    44    23    39    1
    45    24    40    1
    46    25    41    1
    47    26    42    1
