@<TRIPOS>MOLECULE
*****
 39 44 0 0 0
SMALL
GASTEIGER

@<TRIPOS>ATOM
      1 C          -3.6183    0.1712   -2.1028 C.3     1  UNL1       -0.0086
      2 C          -4.9137   -0.5792   -2.2477 C.2     1  UNL1       -0.0797
      3 C          -4.9046   -1.6631   -1.4574 C.2     1  UNL1       -0.0651
      4 C          -3.6541   -1.7289   -0.7450 C.2     1  UNL1       -0.0580
      5 C          -2.8949   -0.6791   -1.0966 C.2     1  UNL1       -0.0359
      6 C          -1.5503   -0.3671   -0.6152 C.ar    1  UNL1       -0.0132
      7 C          -0.4968   -0.9448   -1.3121 C.ar    1  UNL1       -0.0438
      8 C           0.8333   -0.7071   -0.9332 C.ar    1  UNL1        0.0135
      9 C           1.8608   -1.3361   -1.7056 C.ar    1  UNL1        0.1083
     10 N           1.6940   -2.1430   -2.7714 N.ar    1  UNL1       -0.1901
     11 S           3.2008   -2.5926   -3.2828 S.2     1  UNL1        0.1165
     12 N           4.1348   -1.7854   -2.1814 N.ar    1  UNL1       -0.1901
     13 C           3.2924   -1.1272   -1.3621 C.ar    1  UNL1        0.1096
     14 C           3.6509   -0.2988   -0.2619 C.ar    1  UNL1        0.0292
     15 C           5.0132   -0.1049    0.0571 C.ar    1  UNL1       -0.0490
     16 C           5.3508    0.7007    1.1250 C.ar    1  UNL1       -0.0429
     17 C           4.3154    1.2737    1.8225 C.ar    1  UNL1        0.0283
     18 N           3.0046    1.0926    1.5226 N.ar    1  UNL1       -0.2543
     19 C           2.6069    0.3163    0.4911 C.ar    1  UNL1        0.0814
     20 C           1.1912    0.1258    0.1747 C.ar    1  UNL1        0.0180
     21 C           0.0612    0.7182    0.8998 C.ar    1  UNL1       -0.0075
     22 C           0.1969    1.5713    2.0311 C.ar    1  UNL1       -0.0534
     23 C          -0.8812    2.1327    2.7242 C.ar    1  UNL1       -0.0611
     24 C          -2.1693    1.8647    2.3167 C.ar    1  UNL1       -0.0611
     25 C          -2.3671    1.0389    1.2174 C.ar    1  UNL1       -0.0534
     26 C          -1.2914    0.4606    0.4962 C.ar    1  UNL1       -0.0098
     27 H          -3.7955    1.1845   -1.7297 H       1  UNL1        0.0356
     28 H          -3.0843    0.2136   -3.0571 H       1  UNL1        0.0356
     29 H          -5.7229   -0.2804   -2.8966 H       1  UNL1        0.0575
     30 H          -5.6984   -2.3876   -1.3563 H       1  UNL1        0.0615
     31 H          -3.3927   -2.5078   -0.0445 H       1  UNL1        0.0620
     32 H          -0.7169   -1.5888   -2.1642 H       1  UNL1        0.0630
     33 H           5.7972   -0.5815   -0.5272 H       1  UNL1        0.0625
     34 H           6.3833    0.8749    1.4025 H       1  UNL1        0.0633
     35 H           4.5045    1.9202    2.6753 H       1  UNL1        0.0830
     36 H           1.1730    1.8344    2.4234 H       1  UNL1        0.0624
     37 H          -0.6973    2.7750    3.5812 H       1  UNL1        0.0618
     38 H          -3.0174    2.2895    2.8453 H       1  UNL1        0.0618
     39 H          -3.3981    0.8446    0.9260 H       1  UNL1        0.0624
@<TRIPOS>BOND
     1     1     2    1
     2     2     3    2
     3     3     4    1
     4     4     5    2
     5     5     6    1
     6     6     7   ar
     7     7     8   ar
     8     8     9   ar
     9     9    10   ar
    10    10    11   ar
    11    11    12   ar
    12    12    13   ar
    13    13    14   ar
    14    14    15   ar
    15    15    16   ar
    16    16    17   ar
    17    17    18   ar
    18    18    19   ar
    19    19    20   ar
    20    20    21   ar
    21    21    22   ar
    22    22    23   ar
    23    23    24   ar
    24    24    25   ar
    25    25    26   ar
    26     5     1    1
    27    26     6   ar
    28    20     8   ar
    29    26    21   ar
    30    13     9   ar
    31    19    14   ar
    32     1    27    1
    33     1    28    1
    34     2    29    1
    35     3    30    1
    36     4    31    1
    37     7    32    1
    38    15    33    1
    39    16    34    1
    40    17    35    1
    41    22    36    1
    42    23    37    1
    43    24    38    1
    44    25    39    1
