@<TRIPOS>MOLECULE
*****
 38 43 0 0 0
SMALL
GASTEIGER

@<TRIPOS>ATOM
      1 C           5.3602    1.2115    0.8097 C.3     1  UNL1       -0.0072
      2 C           6.6990    0.6338    0.4422 C.2     1  UNL1       -0.0796
      3 C           6.5279   -0.4738   -0.2917 C.2     1  UNL1       -0.0650
      4 C           5.1189   -0.7182   -0.4684 C.2     1  UNL1       -0.0566
      5 C           4.4095    0.2393    0.1568 C.2     1  UNL1       -0.0183
      6 C           2.9589    0.4152    0.2574 C.ar    1  UNL1        0.0676
      7 C           2.0621   -0.4738   -0.3432 C.ar    1  UNL1       -0.0319
      8 C           0.7104   -0.2174   -0.1883 C.ar    1  UNL1       -0.0304
      9 C          -0.4644   -1.0377   -0.7468 C.3     1  UNL1        0.0009
     10 C          -1.5662   -0.1928   -0.1984 C.ar    1  UNL1       -0.0094
     11 C          -1.1207    0.8884    0.5251 C.ar    1  UNL1        0.0528
     12 N          -2.1588    1.6226    1.0005 N.ar    1  UNL1       -0.3539
     13 C          -3.3425    1.0180    0.5849 C.ar    1  UNL1        0.0478
     14 C          -4.6963    1.3724    0.8041 C.ar    1  UNL1       -0.0372
     15 C          -5.7398    0.5854    0.2687 C.ar    1  UNL1       -0.0515
     16 C          -5.2991   -0.5206   -0.4608 C.ar    1  UNL1       -0.0102
     17 C          -6.1713   -1.4029   -1.0575 C.ar    1  UNL1       -0.0166
     18 S          -5.3367   -2.6707   -1.8899 S.2     1  UNL1       -0.1039
     19 C          -3.7877   -2.0458   -1.4561 C.ar    1  UNL1       -0.0160
     20 C          -3.9658   -0.9194   -0.7098 C.ar    1  UNL1       -0.0014
     21 C          -2.9450   -0.0992   -0.1526 C.ar    1  UNL1        0.0120
     22 C           0.3004    0.9095    0.5556 C.ar    1  UNL1        0.0202
     23 C           1.2299    1.7392    1.1172 C.ar    1  UNL1        0.0376
     24 N           2.5574    1.5075    0.9783 N.ar    1  UNL1       -0.2546
     25 H           5.2376    1.2325    1.8975 H       1  UNL1        0.0356
     26 H           5.2536    2.2217    0.4012 H       1  UNL1        0.0356
     27 H           7.6472    1.0590    0.7334 H       1  UNL1        0.0575
     28 H           7.3093   -1.0988   -0.6965 H       1  UNL1        0.0615
     29 H           4.7380   -1.5583   -1.0276 H       1  UNL1        0.0621
     30 H           2.3974   -1.3326   -0.9100 H       1  UNL1        0.0642
     31 H          -0.4542   -1.0423   -1.8394 H       1  UNL1        0.0362
     32 H          -0.4717   -2.0466   -0.3273 H       1  UNL1        0.0362
     33 H          -2.1010    2.4626    1.5591 H       1  UNL1        0.1659
     34 H          -4.9415    2.2562    1.3884 H       1  UNL1        0.0638
     35 H          -6.7816    0.8381    0.4241 H       1  UNL1        0.0624
     36 H          -7.2523   -1.3897   -1.0618 H       1  UNL1        0.0699
     37 H          -2.8814   -2.5397   -1.7733 H       1  UNL1        0.0700
     38 H           0.9602    2.6141    1.6952 H       1  UNL1        0.0836
@<TRIPOS>BOND
     1     1     2    1
     2     2     3    2
     3     3     4    1
     4     4     5    2
     5     5     6    1
     6     6     7   ar
     7     7     8   ar
     8     8     9    1
     9     9    10    1
    10    10    11   ar
    11    11    12   ar
    12    12    13   ar
    13    13    14   ar
    14    14    15   ar
    15    15    16   ar
    16    16    17   ar
    17    17    18   ar
    18    18    19   ar
    19    19    20   ar
    20    20    21   ar
    21    11    22    1
    22    22    23   ar
    23    23    24   ar
    24     5     1    1
    25    24     6   ar
    26    22     8   ar
    27    21    10   ar
    28    21    13   ar
    29    20    16   ar
    30     1    25    1
    31     1    26    1
    32     2    27    1
    33     3    28    1
    34     4    29    1
    35     7    30    1
    36     9    31    1
    37     9    32    1
    38    12    33    1
    39    14    34    1
    40    15    35    1
    41    17    36    1
    42    19    37    1
    43    23    38    1
