@<TRIPOS>MOLECULE
*****
 35 40 0 0 0
SMALL
GASTEIGER

@<TRIPOS>ATOM
      1 C          -5.1944    0.7301   -0.2099 C.3     1  UNL1       -0.0057
      2 C          -6.3786   -0.1923   -0.1741 C.2     1  UNL1       -0.0796
      3 C          -5.9574   -1.4615   -0.0961 C.2     1  UNL1       -0.0650
      4 C          -4.5172   -1.4863   -0.0745 C.2     1  UNL1       -0.0551
      5 C          -4.0325   -0.2327   -0.1389 C.2     1  UNL1       -0.0014
      6 C          -2.6369    0.0307   -0.1342 C.ar    1  UNL1        0.1326
      7 C          -1.9822    1.2565   -0.1945 C.ar    1  UNL1       -0.0084
      8 C          -0.5842    1.0175   -0.1612 C.ar    1  UNL1        0.0214
      9 C           0.5710    1.8168   -0.1901 C.ar    1  UNL1       -0.0411
     10 C           1.8347    1.1801   -0.1361 C.ar    1  UNL1        0.0131
     11 C           3.0646    1.9174   -0.1604 C.ar    1  UNL1        0.1083
     12 N           3.2049    3.2603   -0.2345 N.ar    1  UNL1       -0.1901
     13 S           4.8492    3.5805   -0.2293 S.2     1  UNL1        0.1165
     14 N           5.4696    2.0272   -0.1325 N.ar    1  UNL1       -0.1901
     15 C           4.3723    1.2863   -0.1061 C.ar    1  UNL1        0.1096
     16 C           4.4030   -0.1376   -0.0251 C.ar    1  UNL1        0.0284
     17 C           5.5196   -0.9739    0.0381 C.ar    1  UNL1       -0.0345
     18 C           5.0015   -2.2501    0.1030 C.ar    1  UNL1        0.0028
     19 N           3.6252   -2.1683    0.0788 N.ar    1  UNL1       -0.3601
     20 C           3.2177   -0.8479   -0.0017 C.ar    1  UNL1        0.0566
     21 C           1.9328   -0.2414   -0.0542 C.ar    1  UNL1        0.0117
     22 C           0.7700   -1.0368   -0.0257 C.ar    1  UNL1       -0.0090
     23 C          -0.4477   -0.3579   -0.0813 C.ar    1  UNL1        0.1363
     24 O          -1.6694   -0.9504   -0.0650 O.2     1  UNL1       -0.4551
     25 H          -5.1778    1.3076   -1.1395 H       1  UNL1        0.0357
     26 H          -5.2029    1.4091    0.6486 H       1  UNL1        0.0357
     27 H          -7.4086    0.1292   -0.2068 H       1  UNL1        0.0575
     28 H          -6.5800   -2.3424   -0.0548 H       1  UNL1        0.0615
     29 H          -3.9384   -2.3968   -0.0146 H       1  UNL1        0.0621
     30 H          -2.4667    2.2210   -0.2559 H       1  UNL1        0.0661
     31 H           0.4949    2.8990   -0.2524 H       1  UNL1        0.0631
     32 H           6.5667   -0.6995    0.0374 H       1  UNL1        0.0639
     33 H           5.4902   -3.2137    0.1645 H       1  UNL1        0.0807
     34 H           3.0015   -2.9629    0.1150 H       1  UNL1        0.1654
     35 H           0.7856   -2.1167    0.0357 H       1  UNL1        0.0661
@<TRIPOS>BOND
     1     1     2    1
     2     2     3    2
     3     3     4    1
     4     4     5    2
     5     5     6    1
     6     6     7   ar
     7     7     8   ar
     8     8     9   ar
     9     9    10   ar
    10    10    11   ar
    11    11    12   ar
    12    12    13   ar
    13    13    14   ar
    14    14    15   ar
    15    15    16   ar
    16    16    17   ar
    17    17    18   ar
    18    18    19   ar
    19    19    20   ar
    20    20    21   ar
    21    21    22   ar
    22    22    23   ar
    23    23    24   ar
    24     5     1    1
    25    24     6   ar
    26    23     8   ar
    27    21    10   ar
    28    15    11   ar
    29    20    16   ar
    30     1    25    1
    31     1    26    1
    32     2    27    1
    33     3    28    1
    34     4    29    1
    35     7    30    1
    36     9    31    1
    37    17    32    1
    38    18    33    1
    39    19    34    1
    40    22    35    1
