@<TRIPOS>MOLECULE
*****
 41 47 0 0 0
SMALL
GASTEIGER

@<TRIPOS>ATOM
      1 C           4.8313    0.7342    1.1183 C.3     1  UNL1       -0.0072
      2 C           6.3226    0.6181    1.0125 C.2     1  UNL1       -0.0796
      3 C           6.6368   -0.2033    0.0032 C.2     1  UNL1       -0.0650
      4 C           5.4284   -0.6811   -0.6186 C.2     1  UNL1       -0.0566
      5 C           4.3478   -0.1628   -0.0048 C.2     1  UNL1       -0.0203
      6 C           3.0325   -0.4793   -0.4260 C.ar    1  UNL1        0.0438
      7 C           2.4929   -1.2647   -1.4199 C.ar    1  UNL1       -0.0290
      8 C           1.0780   -1.1532   -1.3498 C.ar    1  UNL1        0.0009
      9 C           0.0434   -1.6848   -2.1230 C.ar    1  UNL1       -0.0520
     10 C          -1.2847   -1.3530   -1.8198 C.ar    1  UNL1       -0.0527
     11 C          -1.6713   -0.5311   -0.7387 C.ar    1  UNL1       -0.0054
     12 C          -0.5892   -0.0582    0.0906 C.ar    1  UNL1        0.0149
     13 C          -1.0231    0.6780    1.2167 C.ar    1  UNL1       -0.0006
     14 C          -0.2134    1.0950    2.2516 C.ar    1  UNL1       -0.0159
     15 S          -1.0546    1.9866    3.4473 S.2     1  UNL1       -0.1038
     16 C          -2.5438    1.7532    2.6435 C.ar    1  UNL1       -0.0160
     17 C          -2.4093    1.0153    1.4851 C.ar    1  UNL1       -0.0024
     18 C          -3.5123    0.6383    0.6718 C.ar    1  UNL1       -0.0069
     19 C          -4.8682    1.0144    0.9727 C.ar    1  UNL1       -0.0513
     20 C          -5.9630    0.6381    0.1965 C.ar    1  UNL1       -0.0329
     21 C          -5.6642   -0.1503   -0.9271 C.ar    1  UNL1        0.1005
     22 N          -6.5890   -0.6035   -1.7874 N.ar    1  UNL1       -0.1908
     23 S          -5.7792   -1.4678   -2.9380 S.2     1  UNL1        0.1165
     24 N          -4.2295   -1.3059   -2.3965 N.ar    1  UNL1       -0.1901
     25 C          -4.2435   -0.5638   -1.2722 C.ar    1  UNL1        0.1081
     26 C          -3.0927   -0.1723   -0.4607 C.ar    1  UNL1        0.0187
     27 C           0.7574   -0.3366   -0.2652 C.ar    1  UNL1        0.0553
     28 N           1.9718    0.0946    0.2331 N.ar    1  UNL1       -0.3539
     29 H           4.5097    1.7694    0.9661 H       1  UNL1        0.0356
     30 H           4.4804    0.3762    2.0913 H       1  UNL1        0.0356
     31 H           7.0266    1.1233    1.6560 H       1  UNL1        0.0575
     32 H           7.6314   -0.4793   -0.3131 H       1  UNL1        0.0615
     33 H           5.4345   -1.3607   -1.4580 H       1  UNL1        0.0621
     34 H           3.0497   -1.8453   -2.1434 H       1  UNL1        0.0645
     35 H           0.2598   -2.3284   -2.9712 H       1  UNL1        0.0624
     36 H          -2.0215   -1.7894   -2.4860 H       1  UNL1        0.0624
     37 H           0.8328    0.9294    2.4342 H       1  UNL1        0.0700
     38 H          -3.4298    2.1668    3.1014 H       1  UNL1        0.0700
     39 H          -5.0871    1.6253    1.8465 H       1  UNL1        0.0624
     40 H          -6.9775    0.9304    0.4379 H       1  UNL1        0.0640
     41 H           2.0795    0.7881    0.9528 H       1  UNL1        0.1659
@<TRIPOS>BOND
     1     1     2    1
     2     2     3    2
     3     3     4    1
     4     4     5    2
     5     5     6    1
     6     6     7   ar
     7     7     8   ar
     8     8     9   ar
     9     9    10   ar
    10    10    11   ar
    11    11    12   ar
    12    12    13   ar
    13    13    14   ar
    14    14    15   ar
    15    15    16   ar
    16    16    17   ar
    17    17    18   ar
    18    18    19   ar
    19    19    20   ar
    20    20    21   ar
    21    21    22   ar
    22    22    23   ar
    23    23    24   ar
    24    24    25   ar
    25    25    26   ar
    26    12    27   ar
    27    27    28   ar
    28     5     1    1
    29    28     6   ar
    30    27     8   ar
    31    26    11   ar
    32    17    13   ar
    33    26    18   ar
    34    25    21   ar
    35     1    29    1
    36     1    30    1
    37     2    31    1
    38     3    32    1
    39     4    33    1
    40     7    34    1
    41     9    35    1
    42    10    36    1
    43    14    37    1
    44    16    38    1
    45    19    39    1
    46    20    40    1
    47    28    41    1
