@<TRIPOS>MOLECULE
*****
 40 46 0 0 0
SMALL
GASTEIGER

@<TRIPOS>ATOM
      1 C           4.9713   -1.2259   -0.3190 C.3     1  UNL1       -0.0086
      2 C           6.4117   -0.8160   -0.4071 C.2     1  UNL1       -0.0797
      3 C           6.5054    0.5152   -0.3055 C.2     1  UNL1       -0.0651
      4 C           5.1890    1.0760   -0.1429 C.2     1  UNL1       -0.0579
      5 C           4.2629    0.0992   -0.1358 C.2     1  UNL1       -0.0344
      6 C           2.8047    0.1993    0.0078 C.ar    1  UNL1        0.0072
      7 C           1.9384   -0.8686   -0.2917 C.ar    1  UNL1       -0.0444
      8 C           0.5227   -0.8425   -0.1784 C.ar    1  UNL1       -0.0145
      9 C          -0.1447   -2.0285   -0.4968 C.ar    1  UNL1       -0.0532
     10 C          -1.5277   -2.1458   -0.4106 C.ar    1  UNL1       -0.0499
     11 C          -2.3079   -1.0487   -0.0358 C.ar    1  UNL1        0.0263
     12 C          -3.7119   -1.2804    0.0093 C.ar    1  UNL1        0.1432
     13 O          -4.3921   -2.4508   -0.2411 O.2     1  UNL1       -0.4623
     14 C          -5.7252   -2.1870   -0.0770 C.ar    1  UNL1        0.0932
     15 C          -5.9401   -0.8678    0.2708 C.ar    1  UNL1       -0.0154
     16 C          -4.6583   -0.3363    0.3169 C.ar    1  UNL1        0.0314
     17 C          -4.1656    0.9481    0.5805 C.ar    1  UNL1        0.0312
     18 C          -4.8567    2.0815    0.8565 C.ar    1  UNL1        0.1001
     19 O          -3.9375    3.0842    0.9722 O.2     1  UNL1       -0.4698
     20 C          -2.6943    2.5321    0.7661 C.ar    1  UNL1        0.1000
     21 C          -2.7678    1.1721    0.5442 C.ar    1  UNL1        0.0290
     22 C          -1.7078    0.2252    0.2729 C.ar    1  UNL1        0.0062
     23 C          -0.2364    0.3031    0.2429 C.ar    1  UNL1        0.0188
     24 C           0.6224    1.4105    0.6284 C.ar    1  UNL1        0.1087
     25 N           0.2227    2.5760    1.1607 N.ar    1  UNL1       -0.1901
     26 S           1.5489    3.5080    1.4413 S.2     1  UNL1        0.1165
     27 N           2.7331    2.4937    0.9192 N.ar    1  UNL1       -0.1902
     28 C           2.1462    1.3563    0.5022 C.ar    1  UNL1        0.1079
     29 H           4.6674   -1.7271   -1.2436 H       1  UNL1        0.0356
     30 H           4.8108   -1.8893    0.5370 H       1  UNL1        0.0356
     31 H           7.2386   -1.4977   -0.5347 H       1  UNL1        0.0575
     32 H           7.4129    1.0990   -0.3344 H       1  UNL1        0.0615
     33 H           5.0249    2.1388   -0.0478 H       1  UNL1        0.0620
     34 H           2.3929   -1.7960   -0.6469 H       1  UNL1        0.0630
     35 H           0.4110   -2.9125   -0.8105 H       1  UNL1        0.0624
     36 H          -1.9868   -3.1032   -0.6534 H       1  UNL1        0.0625
     37 H          -6.3820   -3.0296   -0.2450 H       1  UNL1        0.1030
     38 H          -6.8938   -0.3948    0.4521 H       1  UNL1        0.0655
     39 H          -5.8925    2.3625    0.9770 H       1  UNL1        0.1036
     40 H          -1.9091    3.2676    0.7972 H       1  UNL1        0.1036
@<TRIPOS>BOND
     1     1     2    1
     2     2     3    2
     3     3     4    1
     4     4     5    2
     5     5     6    1
     6     6     7   ar
     7     7     8   ar
     8     8     9   ar
     9     9    10   ar
    10    10    11   ar
    11    11    12   ar
    12    12    13   ar
    13    13    14   ar
    14    14    15   ar
    15    15    16   ar
    16    16    17   ar
    17    17    18   ar
    18    18    19   ar
    19    19    20   ar
    20    20    21   ar
    21    21    22   ar
    22    22    23   ar
    23    23    24   ar
    24    24    25   ar
    25    25    26   ar
    26    26    27   ar
    27    27    28   ar
    28     5     1    1
    29    28     6   ar
    30    23     8   ar
    31    28    24   ar
    32    22    11   ar
    33    16    12   ar
    34    21    17   ar
    35     1    29    1
    36     1    30    1
    37     2    31    1
    38     3    32    1
    39     4    33    1
    40     7    34    1
    41     9    35    1
    42    10    36    1
    43    14    37    1
    44    15    38    1
    45    18    39    1
    46    20    40    1
