@<TRIPOS>MOLECULE
*****
 47 53 0 0 0
SMALL
GASTEIGER

@<TRIPOS>ATOM
      1 C          -5.2523    1.7688    0.3934 C.3     1  UNL1       -0.0086
      2 C          -6.6012    1.8458   -0.2668 C.2     1  UNL1       -0.0797
      3 C          -6.6321    1.0387   -1.3377 C.2     1  UNL1       -0.0651
      4 C          -5.3587    0.3807   -1.4810 C.2     1  UNL1       -0.0580
      5 C          -4.5454    0.7787   -0.4894 C.2     1  UNL1       -0.0359
      6 C          -3.1573    0.3706   -0.2747 C.ar    1  UNL1       -0.0132
      7 C          -2.1723    1.2871   -0.6652 C.ar    1  UNL1       -0.0444
      8 C          -0.8148    0.9952   -0.5231 C.ar    1  UNL1        0.0049
      9 C           0.1592    1.9197   -0.9199 C.ar    1  UNL1        0.0362
     10 N           1.4972    1.7626   -0.8373 N.ar    1  UNL1       -0.2505
     11 C           1.8864    0.5737   -0.3123 C.ar    1  UNL1        0.1178
     12 C           0.9840   -0.4011    0.1059 C.ar    1  UNL1        0.1627
     13 O           1.6786   -1.4751    0.5837 O.2     1  UNL1       -0.4526
     14 C           3.0035   -1.1928    0.4733 C.ar    1  UNL1        0.1384
     15 C           4.0280   -2.0519    0.8601 C.ar    1  UNL1       -0.0181
     16 C           5.3365   -1.5954    0.6732 C.ar    1  UNL1       -0.0505
     17 C           5.6062   -0.3324    0.1223 C.ar    1  UNL1       -0.0170
     18 C           6.9240    0.1141   -0.0602 C.ar    1  UNL1       -0.0540
     19 C           7.1852    1.3723   -0.6091 C.ar    1  UNL1       -0.0612
     20 C           6.1345    2.2059   -0.9852 C.ar    1  UNL1       -0.0611
     21 C           4.8152    1.7870   -0.8148 C.ar    1  UNL1       -0.0533
     22 C           4.5367    0.5202   -0.2622 C.ar    1  UNL1       -0.0051
     23 C           3.1990    0.0677   -0.0773 C.ar    1  UNL1        0.0539
     24 C          -0.4287   -0.2502    0.0256 C.ar    1  UNL1        0.0357
     25 C          -1.4228   -1.2133    0.4376 C.ar    1  UNL1       -0.0060
     26 C          -1.1150   -2.4803    0.9971 C.ar    1  UNL1       -0.0533
     27 C          -2.0994   -3.3881    1.3922 C.ar    1  UNL1       -0.0611
     28 C          -3.4334   -3.0590    1.2430 C.ar    1  UNL1       -0.0611
     29 C          -3.7757   -1.8246    0.6963 C.ar    1  UNL1       -0.0534
     30 C          -2.7991   -0.8855    0.2809 C.ar    1  UNL1       -0.0098
     31 H          -4.7610    2.7467    0.3880 H       1  UNL1        0.0356
     32 H          -5.3418    1.4018    1.4206 H       1  UNL1        0.0356
     33 H          -7.4165    2.4627    0.0798 H       1  UNL1        0.0575
     34 H          -7.4693    0.8907   -2.0031 H       1  UNL1        0.0615
     35 H          -5.1192   -0.3152   -2.2711 H       1  UNL1        0.0620
     36 H          -2.4782    2.2400   -1.0967 H       1  UNL1        0.0630
     37 H          -0.1352    2.8788   -1.3445 H       1  UNL1        0.0836
     38 H           3.8170   -3.0260    1.2849 H       1  UNL1        0.0655
     39 H           6.1577   -2.2473    0.9672 H       1  UNL1        0.0625
     40 H           7.7637   -0.5163    0.2246 H       1  UNL1        0.0624
     41 H           8.2125    1.7018   -0.7433 H       1  UNL1        0.0618
     42 H           6.3406    3.1840   -1.4120 H       1  UNL1        0.0618
     43 H           4.0084    2.4520   -1.1146 H       1  UNL1        0.0624
     44 H          -0.0849   -2.7921    1.1407 H       1  UNL1        0.0624
     45 H          -1.8147   -4.3471    1.8167 H       1  UNL1        0.0618
     46 H          -4.2094   -3.7549    1.5493 H       1  UNL1        0.0618
     47 H          -4.8360   -1.5986    0.5989 H       1  UNL1        0.0624
@<TRIPOS>BOND
     1     1     2    1
     2     2     3    2
     3     3     4    1
     4     4     5    2
     5     5     6    1
     6     6     7   ar
     7     7     8   ar
     8     8     9   ar
     9     9    10   ar
    10    10    11   ar
    11    11    12   ar
    12    12    13   ar
    13    13    14   ar
    14    14    15   ar
    15    15    16   ar
    16    16    17   ar
    17    17    18   ar
    18    18    19   ar
    19    19    20   ar
    20    20    21   ar
    21    21    22   ar
    22    22    23   ar
    23    12    24   ar
    24    24    25   ar
    25    25    26   ar
    26    26    27   ar
    27    27    28   ar
    28    28    29   ar
    29    29    30   ar
    30     5     1    1
    31    30     6   ar
    32    24     8   ar
    33    30    25   ar
    34    23    11   ar
    35    23    14   ar
    36    22    17   ar
    37     1    31    1
    38     1    32    1
    39     2    33    1
    40     3    34    1
    41     4    35    1
    42     7    36    1
    43     9    37    1
    44    15    38    1
    45    16    39    1
    46    18    40    1
    47    19    41    1
    48    20    42    1
    49    21    43    1
    50    26    44    1
    51    27    45    1
    52    28    46    1
    53    29    47    1
