@<TRIPOS>MOLECULE
*****
 45 51 0 0 0
SMALL
GASTEIGER

@<TRIPOS>ATOM
      1 C           5.2339    1.7190   -0.2631 C.3     1  UNL1       -0.0086
      2 C           6.6889    1.5886    0.0903 C.2     1  UNL1       -0.0797
      3 C           6.8965    0.4315    0.7332 C.2     1  UNL1       -0.0651
      4 C           5.6493   -0.2781    0.8555 C.2     1  UNL1       -0.0580
      5 C           4.6652    0.4303    0.2750 C.2     1  UNL1       -0.0358
      6 C           3.2525    0.1019    0.1879 C.ar    1  UNL1       -0.0104
      7 C           2.2049    1.0397    0.3262 C.ar    1  UNL1       -0.0277
      8 C           0.8128    0.7697    0.2496 C.ar    1  UNL1        0.0728
      9 N           0.0303    1.8299    0.4179 N.ar    1  UNL1       -0.2543
     10 C          -1.3135    1.6691    0.3432 C.ar    1  UNL1        0.0366
     11 C          -2.0123    0.4801    0.1122 C.ar    1  UNL1        0.0091
     12 C          -1.1960   -0.6712    0.0294 C.ar    1  UNL1       -0.0060
     13 C          -1.8594   -1.9121    0.0058 C.ar    1  UNL1       -0.0527
     14 C          -3.2517   -2.0356    0.0238 C.ar    1  UNL1       -0.0534
     15 C          -4.0840   -0.9238    0.0236 C.ar    1  UNL1       -0.0166
     16 C          -5.5013   -1.1635    0.0316 C.ar    1  UNL1       -0.0534
     17 C          -6.4906   -0.1677    0.0081 C.ar    1  UNL1       -0.0529
     18 C          -5.9250    1.0947   -0.0730 C.ar    1  UNL1       -0.0103
     19 C          -6.7186    2.2113   -0.1725 C.ar    1  UNL1       -0.0166
     20 S          -5.7739    3.6253   -0.3528 S.2     1  UNL1       -0.1039
     21 C          -4.3064    2.7270   -0.3048 C.ar    1  UNL1       -0.0160
     22 C          -4.5040    1.3820   -0.0803 C.ar    1  UNL1       -0.0025
     23 C          -3.4687    0.3756    0.0210 C.ar    1  UNL1       -0.0005
     24 C           0.2526   -0.5277    0.0238 C.ar    1  UNL1        0.0173
     25 C           1.3221   -1.4683   -0.1824 C.ar    1  UNL1        0.0097
     26 C           1.2402   -2.7840   -0.5806 C.ar    1  UNL1        0.0101
     27 N           2.5211   -3.2807   -0.6915 N.ar    1  UNL1       -0.3659
     28 C           3.4325   -2.2923   -0.4199 C.ar    1  UNL1        0.0100
     29 C           2.7266   -1.1574   -0.0983 C.ar    1  UNL1        0.0075
     30 H           5.1031    1.7938   -1.3473 H       1  UNL1        0.0356
     31 H           4.8027    2.5979    0.2260 H       1  UNL1        0.0356
     32 H           7.4426    2.3257   -0.1408 H       1  UNL1        0.0575
     33 H           7.8403    0.0704    1.1123 H       1  UNL1        0.0615
     34 H           5.5504   -1.2245    1.3649 H       1  UNL1        0.0620
     35 H           2.4757    2.0774    0.5308 H       1  UNL1        0.0645
     36 H          -1.8291    2.5971    0.5541 H       1  UNL1        0.0836
     37 H          -1.3017   -2.8396    0.0370 H       1  UNL1        0.0624
     38 H          -3.6706   -3.0411    0.0325 H       1  UNL1        0.0624
     39 H          -5.8549   -2.1969    0.0562 H       1  UNL1        0.0624
     40 H          -7.5492   -0.3898    0.0121 H       1  UNL1        0.0624
     41 H          -7.7980    2.2791   -0.1739 H       1  UNL1        0.0699
     42 H          -3.4017    3.2853   -0.4755 H       1  UNL1        0.0700
     43 H           0.4198   -3.4345   -0.8369 H       1  UNL1        0.0813
     44 H           2.7551   -4.2221   -0.9798 H       1  UNL1        0.1648
     45 H           4.4914   -2.4914   -0.5104 H       1  UNL1        0.0813
@<TRIPOS>BOND
     1     1     2    1
     2     2     3    2
     3     3     4    1
     4     4     5    2
     5     5     6    1
     6     6     7   ar
     7     7     8   ar
     8     8     9   ar
     9     9    10   ar
    10    10    11   ar
    11    11    12   ar
    12    12    13   ar
    13    13    14   ar
    14    14    15   ar
    15    15    16   ar
    16    16    17   ar
    17    17    18   ar
    18    18    19   ar
    19    19    20   ar
    20    20    21   ar
    21    21    22   ar
    22    22    23   ar
    23    12    24   ar
    24    24    25   ar
    25    25    26   ar
    26    26    27   ar
    27    27    28   ar
    28    28    29   ar
    29     5     1    1
    30    29     6   ar
    31    24     8   ar
    32    29    25   ar
    33    23    11   ar
    34    23    15   ar
    35    22    18   ar
    36     1    30    1
    37     1    31    1
    38     2    32    1
    39     3    33    1
    40     4    34    1
    41     7    35    1
    42    10    36    1
    43    13    37    1
    44    14    38    1
    45    16    39    1
    46    17    40    1
    47    19    41    1
    48    21    42    1
    49    26    43    1
    50    27    44    1
    51    28    45    1
