@<TRIPOS>MOLECULE
*****
 43 49 0 0 0
SMALL
GASTEIGER

@<TRIPOS>ATOM
      1 C           5.4330    1.3119    0.1620 C.3     1  UNL1        0.0000
      2 C           6.8705    0.8896    0.2391 C.2     1  UNL1        0.0000
      3 C           6.9427   -0.4453    0.3000 C.2     1  UNL1        0.0000
      4 C           5.6133   -0.9981    0.2667 C.2     1  UNL1        0.0000
      5 C           4.7000   -0.0131    0.1791 C.2     1  UNL1        0.0000
      6 C           3.2356   -0.0993    0.1183 C.ar    1  UNL1        0.0000
      7 C           2.4028    1.0332    0.2258 C.ar    1  UNL1        0.0000
      8 C           1.0025    1.0413    0.1863 C.ar    1  UNL1        0.0000
      9 N           0.4592    2.2553    0.2347 N.ar    1  UNL1        0.0000
     10 C          -0.8830    2.3729    0.1138 C.ar    1  UNL1        0.0000
     11 C          -1.7762    1.3123    0.0476 C.ar    1  UNL1        0.0000
     12 C          -3.2197    1.5468   -0.1944 C.ar    1  UNL1        0.0000
     13 N          -3.5832    2.8395   -0.4271 N.ar    1  UNL1        0.0000
     14 C          -4.8747    3.0864   -0.7323 C.ar    1  UNL1        0.0000
     15 C          -5.8417    2.1042   -0.8267 C.ar    1  UNL1        0.0000
     16 C          -5.4676    0.7869   -0.5814 C.ar    1  UNL1        0.0000
     17 C          -4.1409    0.4883   -0.2521 C.ar    1  UNL1        0.0000
     18 C          -3.6548   -0.8595    0.0857 C.ar    1  UNL1        0.0000
     19 C          -4.4511   -1.9241    0.3214 C.2     1  UNL1        0.0000
     20 SI         -3.4820   -3.3584    1.0209 Si      1  UNL1        0.0000
     21 C          -1.9750   -2.2629    0.9691 C.2     1  UNL1        0.0000
     22 C          -2.2127   -1.0805    0.3633 C.ar    1  UNL1        0.0000
     23 C          -1.2203    0.0153    0.1572 C.ar    1  UNL1        0.0000
     24 C           0.2106   -0.1350    0.0867 C.ar    1  UNL1        0.0000
     25 C           1.0047   -1.3304   -0.1475 C.ar    1  UNL1        0.0000
     26 N           0.5370   -2.5488   -0.4758 N.ar    1  UNL1        0.0000
     27 S           1.8209   -3.5663   -0.6401 S.2     1  UNL1        0.0000
     28 N           3.0600   -2.5253   -0.3382 N.ar    1  UNL1        0.0000
     29 C           2.5297   -1.3092   -0.1143 C.ar    1  UNL1        0.0000
     30 H           5.1752    1.9309    1.0275 H       1  UNL1        0.0000
     31 H           5.2441    1.8647   -0.7640 H       1  UNL1        0.0000
     32 H           7.7103    1.5675    0.2452 H       1  UNL1        0.0000
     33 H           7.8435   -1.0369    0.3627 H       1  UNL1        0.0000
     34 H           5.4336   -2.0615    0.3126 H       1  UNL1        0.0000
     35 H           2.8732    2.0117    0.3452 H       1  UNL1        0.0000
     36 H          -1.2313    3.4033    0.0662 H       1  UNL1        0.0000
     37 H          -5.1176    4.1304   -0.9100 H       1  UNL1        0.0000
     38 H          -6.8651    2.3568   -1.0807 H       1  UNL1        0.0000
     39 H          -6.2201    0.0076   -0.6476 H       1  UNL1        0.0000
     40 H          -5.5241   -1.9874    0.2485 H       1  UNL1        0.0000
     41 H          -3.4082   -4.5009    0.0790 H       1  UNL1        0.0000
     42 H          -3.8997   -3.6895    2.4044 H       1  UNL1        0.0000
     43 H          -1.0533   -2.6246    1.3915 H       1  UNL1        0.0000
@<TRIPOS>BOND
     1     1     2    1
     2     2     3    2
     3     3     4    1
     4     4     5    2
     5     5     6    1
     6     6     7   ar
     7     7     8   ar
     8     8     9   ar
     9     9    10   ar
    10    10    11   ar
    11    11    12   ar
    12    12    13   ar
    13    13    14   ar
    14    14    15   ar
    15    15    16   ar
    16    16    17   ar
    17    17    18   ar
    18    18    19    2
    19    19    20    1
    20    20    21    1
    21    21    22    2
    22    22    23   ar
    23    23    24   ar
    24    24    25   ar
    25    25    26   ar
    26    26    27   ar
    27    27    28   ar
    28    28    29   ar
    29     5     1    1
    30    29     6   ar
    31    24     8   ar
    32    29    25   ar
    33    23    11   ar
    34    17    12   ar
    35    22    18   ar
    36     1    30    1
    37     1    31    1
    38     2    32    1
    39     3    33    1
    40     4    34    1
    41     7    35    1
    42    10    36    1
    43    14    37    1
    44    15    38    1
    45    16    39    1
    46    19    40    1
    47    20    41    1
    48    20    42    1
    49    21    43    1
