@<TRIPOS>MOLECULE
*****
 36 41 0 0 0
SMALL
GASTEIGER

@<TRIPOS>ATOM
      1 C           4.7157   -0.1648    0.1566 C.3     1  UNL1       -0.0086
      2 C           5.8469    0.5873    0.7952 C.2     1  UNL1       -0.0797
      3 C           5.3574    1.5932    1.5281 C.2     1  UNL1       -0.0651
      4 C           3.9207    1.5889    1.4379 C.2     1  UNL1       -0.0580
      5 C           3.4991    0.5805    0.6483 C.2     1  UNL1       -0.0357
      6 C           2.1029    0.2633    0.3242 C.ar    1  UNL1       -0.0073
      7 C           1.0054    1.0300    0.8427 C.ar    1  UNL1       -0.0106
      8 C          -0.3244    0.6990    0.5122 C.ar    1  UNL1        0.1390
      9 O          -1.4774    1.3294    0.9238 O.2     1  UNL1       -0.4525
     10 C          -2.4960    0.6224    0.3256 C.ar    1  UNL1        0.1629
     11 C          -3.9012    0.6726    0.2809 C.ar    1  UNL1        0.0607
     12 C          -4.9000    1.4737    0.8316 C.ar    1  UNL1        0.0403
     13 N          -6.2039    1.2162    0.5588 N.ar    1  UNL1       -0.2624
     14 C          -6.5086    0.1761   -0.2507 C.ar    1  UNL1        0.0295
     15 C          -5.5853   -0.6755   -0.8443 C.ar    1  UNL1       -0.0195
     16 C          -4.2489   -0.4006   -0.5562 C.ar    1  UNL1        0.0535
     17 N          -3.0981   -1.0464   -0.9798 N.ar    1  UNL1       -0.3510
     18 C          -2.0245   -0.4062   -0.4293 C.ar    1  UNL1        0.0947
     19 C          -0.6545   -0.3459   -0.3025 C.ar    1  UNL1        0.0549
     20 C           0.3447   -1.1473   -0.8532 C.ar    1  UNL1        0.0332
     21 C           0.2991   -2.2236   -1.6749 C.ar    1  UNL1        0.1002
     22 O           1.5948   -2.6099   -1.8921 O.2     1  UNL1       -0.4698
     23 C           2.4114   -1.7521   -1.1911 C.ar    1  UNL1        0.1000
     24 C           1.6769   -0.8022   -0.5117 C.ar    1  UNL1        0.0281
     25 H           4.8097   -0.1166   -0.9327 H       1  UNL1        0.0356
     26 H           4.7230   -1.2038    0.5004 H       1  UNL1        0.0356
     27 H           6.8917    0.3447    0.6746 H       1  UNL1        0.0575
     28 H           5.9294    2.3057    2.1029 H       1  UNL1        0.0615
     29 H           3.3177    2.3193    1.9553 H       1  UNL1        0.0620
     30 H           1.1717    1.8782    1.4982 H       1  UNL1        0.0661
     31 H          -4.6946    2.3147    1.4838 H       1  UNL1        0.0837
     32 H          -7.5731    0.0339   -0.4217 H       1  UNL1        0.0830
     33 H          -5.8927   -1.4925   -1.4841 H       1  UNL1        0.0653
     34 H          -3.0337   -1.8515   -1.5887 H       1  UNL1        0.1660
     35 H          -0.4616   -2.8107   -2.1666 H       1  UNL1        0.1036
     36 H           3.4604   -1.9790   -1.3018 H       1  UNL1        0.1036
@<TRIPOS>BOND
     1     1     2    1
     2     2     3    2
     3     3     4    1
     4     4     5    2
     5     5     6    1
     6     6     7   ar
     7     7     8   ar
     8     8     9   ar
     9     9    10   ar
    10    10    11   ar
    11    11    12   ar
    12    12    13   ar
    13    13    14   ar
    14    14    15   ar
    15    15    16   ar
    16    16    17   ar
    17    17    18   ar
    18    18    19   ar
    19    19    20   ar
    20    20    21   ar
    21    21    22   ar
    22    22    23   ar
    23    23    24   ar
    24     5     1    1
    25    24     6   ar
    26    19     8   ar
    27    24    20   ar
    28    18    10   ar
    29    16    11   ar
    30     1    25    1
    31     1    26    1
    32     2    27    1
    33     3    28    1
    34     4    29    1
    35     7    30    1
    36    12    31    1
    37    14    32    1
    38    15    33    1
    39    17    34    1
    40    21    35    1
    41    23    36    1
