@<TRIPOS>MOLECULE
*****
 44 50 0 0 0
SMALL
GASTEIGER

@<TRIPOS>ATOM
      1 C           5.9979   -1.3185    0.2071 C.3     1  UNL1       -0.0072
      2 C           7.2300   -0.6157   -0.2799 C.2     1  UNL1       -0.0796
      3 C           6.8832    0.5215   -0.8944 C.2     1  UNL1       -0.0650
      4 C           5.4489    0.6635   -0.8680 C.2     1  UNL1       -0.0566
      5 C           4.8850   -0.3844   -0.2363 C.2     1  UNL1       -0.0203
      6 C           3.4877   -0.5521   -0.0383 C.ar    1  UNL1        0.0443
      7 C           2.7799   -1.5641    0.5850 C.ar    1  UNL1       -0.0223
      8 C           1.4065   -1.2066    0.4847 C.ar    1  UNL1        0.0386
      9 S          -0.1435   -1.8240    0.9476 S.2     1  UNL1       -0.0860
     10 C          -0.9995   -0.4565    0.2390 C.ar    1  UNL1        0.0308
     11 C          -0.0211    0.3705   -0.2998 C.ar    1  UNL1        0.0229
     12 C          -0.3733    1.5772   -0.9546 C.ar    1  UNL1        0.0102
     13 C           0.3652    2.5522   -1.5591 C.ar    1  UNL1        0.0101
     14 N          -0.5586    3.4719   -2.0099 N.ar    1  UNL1       -0.3659
     15 C          -1.8366    3.0593   -1.6830 C.ar    1  UNL1        0.0100
     16 C          -1.7433    1.8565   -1.0112 C.ar    1  UNL1        0.0078
     17 C          -2.8092    1.0816   -0.4955 C.ar    1  UNL1       -0.0071
     18 C          -4.1481    1.4862   -0.6250 C.ar    1  UNL1       -0.0528
     19 C          -5.1639    0.6998   -0.1065 C.ar    1  UNL1       -0.0534
     20 C          -4.8851   -0.4999    0.5497 C.ar    1  UNL1       -0.0173
     21 C          -5.9770   -1.2347    1.0447 C.ar    1  UNL1       -0.0540
     22 C          -5.7964   -2.4394    1.7109 C.ar    1  UNL1       -0.0612
     23 C          -4.5141   -2.9208    1.8880 C.ar    1  UNL1       -0.0611
     24 C          -3.4199   -2.1954    1.3981 C.ar    1  UNL1       -0.0534
     25 C          -3.5418   -0.9577    0.7090 C.ar    1  UNL1       -0.0091
     26 C          -2.4457   -0.1473    0.1710 C.ar    1  UNL1        0.0048
     27 C           1.3164   -0.0227   -0.1766 C.ar    1  UNL1        0.0625
     28 N           2.5893    0.3813   -0.4986 N.ar    1  UNL1       -0.3535
     29 H           5.8996   -2.3030   -0.2613 H       1  UNL1        0.0356
     30 H           6.0150   -1.4259    1.2964 H       1  UNL1        0.0356
     31 H           8.2368   -0.9816   -0.1485 H       1  UNL1        0.0575
     32 H           7.5564    1.2346   -1.3457 H       1  UNL1        0.0615
     33 H           4.9577    1.5151   -1.3109 H       1  UNL1        0.0621
     34 H           3.1876   -2.4488    1.0542 H       1  UNL1        0.0650
     35 H           1.4180    2.7130   -1.7275 H       1  UNL1        0.0813
     36 H          -0.3364    4.3247   -2.5075 H       1  UNL1        0.1648
     37 H          -2.6805    3.6725   -1.9667 H       1  UNL1        0.0813
     38 H          -4.4140    2.4111   -1.1272 H       1  UNL1        0.0624
     39 H          -6.1905    1.0419   -0.2238 H       1  UNL1        0.0624
     40 H          -6.9938   -0.8686    0.9131 H       1  UNL1        0.0624
     41 H          -6.6509   -2.9941    2.0868 H       1  UNL1        0.0618
     42 H          -4.3491   -3.8617    2.4066 H       1  UNL1        0.0618
     43 H          -2.4563   -2.6474    1.5821 H       1  UNL1        0.0624
     44 H           2.7873    1.2366   -0.9960 H       1  UNL1        0.1659
@<TRIPOS>BOND
     1     1     2    1
     2     2     3    2
     3     3     4    1
     4     4     5    2
     5     5     6    1
     6     6     7   ar
     7     7     8   ar
     8     8     9   ar
     9     9    10   ar
    10    10    11   ar
    11    11    12   ar
    12    12    13   ar
    13    13    14   ar
    14    14    15   ar
    15    15    16   ar
    16    16    17   ar
    17    17    18   ar
    18    18    19   ar
    19    19    20   ar
    20    20    21   ar
    21    21    22   ar
    22    22    23   ar
    23    23    24   ar
    24    24    25   ar
    25    25    26   ar
    26    11    27   ar
    27    27    28   ar
    28     5     1    1
    29    28     6   ar
    30    27     8   ar
    31    26    10   ar
    32    16    12   ar
    33    26    17   ar
    34    25    20   ar
    35     1    29    1
    36     1    30    1
    37     2    31    1
    38     3    32    1
    39     4    33    1
    40     7    34    1
    41    13    35    1
    42    14    36    1
    43    15    37    1
    44    18    38    1
    45    19    39    1
    46    21    40    1
    47    22    41    1
    48    23    42    1
    49    24    43    1
    50    28    44    1
