@<TRIPOS>MOLECULE
*****
 36 41 0 0 0
SMALL
GASTEIGER

@<TRIPOS>ATOM
      1 SI         -1.8370   -3.5375    0.3244 Si      1  UNL1        0.0000
      2 C          -2.8741   -2.0086    0.0531 C.2     1  UNL1        0.0000
      3 C          -2.1128   -0.8951   -0.0148 C.ar    1  UNL1        0.0000
      4 C          -2.6326    0.4757   -0.2299 C.ar    1  UNL1        0.0000
      5 C          -1.7498    1.5029   -0.2905 C.ar    1  UNL1        0.0000
      6 C          -0.3571    1.2286   -0.1513 C.ar    1  UNL1        0.0000
      7 O           0.6405    2.1650   -0.1941 O.2     1  UNL1        0.0000
      8 C           1.8220    1.5146   -0.0199 C.ar    1  UNL1        0.0000
      9 C           3.0745    2.1129   -0.0003 C.ar    1  UNL1        0.0000
     10 C           4.2059    1.3099    0.1899 C.ar    1  UNL1        0.0000
     11 C           5.6031    1.5590    0.2655 C.ar    1  UNL1        0.0000
     12 C           6.2331    0.3522    0.4690 C.ar    1  UNL1        0.0000
     13 N           5.2704   -0.6214    0.5199 N.ar    1  UNL1        0.0000
     14 C           4.0234   -0.0638    0.3523 C.ar    1  UNL1        0.0000
     15 C           2.7569   -0.6552    0.3307 C.ar    1  UNL1        0.0000
     16 C           1.6227    0.1477    0.1402 C.ar    1  UNL1        0.0000
     17 C           0.2189   -0.0246    0.0543 C.ar    1  UNL1        0.0000
     18 C          -0.6470   -1.1580    0.1324 C.ar    1  UNL1        0.0000
     19 C          -0.3186   -2.4505    0.3164 C.2     1  UNL1        0.0000
     20 C          -4.0201    0.8047   -0.3431 C.ar    1  UNL1        0.0000
     21 C          -5.0282    0.7251    0.6046 C.ar    1  UNL1        0.0000
     22 N          -6.2939    1.0937    0.1897 N.ar    1  UNL1        0.0000
     23 C          -6.2425    1.4490   -1.0739 C.ar    1  UNL1        0.0000
     24 S          -4.7068    1.3590   -1.8274 S.2     1  UNL1        0.0000
     25 H          -1.8726   -4.4618   -0.8336 H       1  UNL1        0.0000
     26 H          -2.0765   -4.1561    1.6497 H       1  UNL1        0.0000
     27 H          -3.9466   -2.0812   -0.0368 H       1  UNL1        0.0000
     28 H          -2.0536    2.5348   -0.4300 H       1  UNL1        0.0000
     29 H           3.1683    3.1858   -0.1308 H       1  UNL1        0.0000
     30 H           6.0930    2.5201    0.1799 H       1  UNL1        0.0000
     31 H           7.2798    0.1035    0.5815 H       1  UNL1        0.0000
     32 H           5.4454   -1.6069    0.6598 H       1  UNL1        0.0000
     33 H           2.6555   -1.7272    0.4606 H       1  UNL1        0.0000
     34 H           0.6624   -2.8743    0.4422 H       1  UNL1        0.0000
     35 H          -4.8870    0.3986    1.6284 H       1  UNL1        0.0000
     36 H          -7.1188    1.7793   -1.6163 H       1  UNL1        0.0000
@<TRIPOS>BOND
     1     1     2    1
     2     2     3    2
     3     3     4   ar
     4     4     5   ar
     5     5     6   ar
     6     6     7   ar
     7     7     8   ar
     8     8     9   ar
     9     9    10   ar
    10    10    11   ar
    11    11    12   ar
    12    12    13   ar
    13    13    14   ar
    14    14    15   ar
    15    15    16   ar
    16    16    17   ar
    17    17    18   ar
    18    18    19    2
    19     4    20    1
    20    20    21   ar
    21    21    22   ar
    22    22    23   ar
    23    23    24   ar
    24    19     1    1
    25    24    20   ar
    26    18     3   ar
    27    17     6   ar
    28    16     8   ar
    29    14    10   ar
    30     1    25    1
    31     1    26    1
    32     2    27    1
    33     5    28    1
    34     9    29    1
    35    11    30    1
    36    12    31    1
    37    13    32    1
    38    15    33    1
    39    19    34    1
    40    21    35    1
    41    23    36    1
