@<TRIPOS>MOLECULE
*****
 44 50 0 0 0
SMALL
GASTEIGER

@<TRIPOS>ATOM
      1 C           5.3124    1.7403   -0.2688 C.3     1  UNL1       -0.0086
      2 C           6.7366    1.7886    0.2071 C.2     1  UNL1       -0.0797
      3 C           6.9654    0.7762    1.0544 C.2     1  UNL1       -0.0651
      4 C           5.7628   -0.0014    1.2075 C.2     1  UNL1       -0.0580
      5 C           4.7869    0.5189    0.4431 C.2     1  UNL1       -0.0358
      6 C           3.4121    0.0663    0.3101 C.ar    1  UNL1       -0.0098
      7 C           2.3002    0.9411    0.2534 C.ar    1  UNL1       -0.0392
      8 C           0.9580    0.4646    0.1233 C.ar    1  UNL1        0.0233
      9 S          -0.4932    1.3701    0.0587 S.2     1  UNL1       -0.0860
     10 C          -1.5347   -0.0205   -0.0986 C.ar    1  UNL1        0.0470
     11 C          -0.7443   -1.1837   -0.1011 C.ar    1  UNL1        0.0870
     12 N          -1.2588   -2.4337   -0.2121 N.ar    1  UNL1       -0.2532
     13 C          -2.5897   -2.5063   -0.3217 C.ar    1  UNL1        0.0360
     14 C          -3.4679   -1.4319   -0.3305 C.ar    1  UNL1        0.0019
     15 C          -4.8342   -1.6882   -0.4536 C.ar    1  UNL1       -0.0520
     16 C          -5.7527   -0.6478   -0.4678 C.ar    1  UNL1       -0.0534
     17 C          -5.3369    0.6789   -0.3592 C.ar    1  UNL1       -0.0172
     18 C          -6.3222    1.6816   -0.3803 C.ar    1  UNL1       -0.0540
     19 C          -5.9863    3.0252   -0.2765 C.ar    1  UNL1       -0.0612
     20 C          -4.6557    3.3772   -0.1498 C.ar    1  UNL1       -0.0611
     21 C          -3.6679    2.3843   -0.1280 C.ar    1  UNL1       -0.0534
     22 C          -3.9547    0.9959   -0.2310 C.ar    1  UNL1       -0.0090
     23 C          -2.9831   -0.1002   -0.2168 C.ar    1  UNL1        0.0071
     24 C           0.6252   -0.8694    0.0259 C.ar    1  UNL1        0.0259
     25 C           1.7221   -1.7838    0.0554 C.ar    1  UNL1        0.0307
     26 C           1.7521   -3.1394   -0.0429 C.ar    1  UNL1        0.1001
     27 O           3.0656   -3.5276    0.0069 O.2     1  UNL1       -0.4698
     28 C           3.8255   -2.3913    0.1371 C.ar    1  UNL1        0.1000
     29 C           3.0244   -1.2712    0.1927 C.ar    1  UNL1        0.0279
     30 H           4.7824    2.6511    0.0263 H       1  UNL1        0.0356
     31 H           5.2701    1.6202   -1.3560 H       1  UNL1        0.0356
     32 H           7.4577    2.5334   -0.0936 H       1  UNL1        0.0575
     33 H           7.8961    0.5602    1.5569 H       1  UNL1        0.0615
     34 H           5.6888   -0.8535    1.8665 H       1  UNL1        0.0620
     35 H           2.4599    2.0151    0.3332 H       1  UNL1        0.0635
     36 H          -2.9592   -3.5270   -0.4085 H       1  UNL1        0.0836
     37 H          -5.2069   -2.7076   -0.5409 H       1  UNL1        0.0624
     38 H          -6.8094   -0.8913   -0.5656 H       1  UNL1        0.0624
     39 H          -7.3744    1.4202   -0.4792 H       1  UNL1        0.0624
     40 H          -6.7591    3.7882   -0.2943 H       1  UNL1        0.0618
     41 H          -4.3728    4.4236   -0.0667 H       1  UNL1        0.0618
     42 H          -2.6550    2.7474   -0.0253 H       1  UNL1        0.0624
     43 H           1.0234   -3.9293   -0.1561 H       1  UNL1        0.1036
     44 H           4.8916   -2.5654    0.1662 H       1  UNL1        0.1036
@<TRIPOS>BOND
     1     1     2    1
     2     2     3    2
     3     3     4    1
     4     4     5    2
     5     5     6    1
     6     6     7   ar
     7     7     8   ar
     8     8     9   ar
     9     9    10   ar
    10    10    11   ar
    11    11    12   ar
    12    12    13   ar
    13    13    14   ar
    14    14    15   ar
    15    15    16   ar
    16    16    17   ar
    17    17    18   ar
    18    18    19   ar
    19    19    20   ar
    20    20    21   ar
    21    21    22   ar
    22    22    23   ar
    23    11    24   ar
    24    24    25   ar
    25    25    26   ar
    26    26    27   ar
    27    27    28   ar
    28    28    29   ar
    29     5     1    1
    30    29     6   ar
    31    24     8   ar
    32    29    25   ar
    33    23    10   ar
    34    23    14   ar
    35    22    17   ar
    36     1    30    1
    37     1    31    1
    38     2    32    1
    39     3    33    1
    40     4    34    1
    41     7    35    1
    42    13    36    1
    43    15    37    1
    44    16    38    1
    45    18    39    1
    46    19    40    1
    47    20    41    1
    48    21    42    1
    49    26    43    1
    50    28    44    1
