@<TRIPOS>MOLECULE
*****
 33 38 0 0 0
SMALL
GASTEIGER

@<TRIPOS>ATOM
      1 C          -4.3552   -1.1601    0.5009 C.3     1  UNL1       -0.0086
      2 C          -5.8013   -0.7994    0.3356 C.2     1  UNL1       -0.0797
      3 C          -5.8986    0.4048   -0.2392 C.2     1  UNL1       -0.0651
      4 C          -4.5784    0.9217   -0.4928 C.2     1  UNL1       -0.0579
      5 C          -3.6436    0.0456   -0.0793 C.2     1  UNL1       -0.0344
      6 C          -2.1748    0.1386   -0.1317 C.ar    1  UNL1        0.0077
      7 C          -1.3511   -0.9052    0.3744 C.ar    1  UNL1       -0.0377
      8 C           0.0573   -0.8226    0.3270 C.ar    1  UNL1        0.0263
      9 S           1.2456   -1.9725    0.8833 S.2     1  UNL1       -0.0842
     10 C           2.5490   -0.9300    0.3669 C.ar    1  UNL1        0.0677
     11 C           3.9658   -0.8826    0.3364 C.ar    1  UNL1        0.0526
     12 C           5.0290   -1.6909    0.7262 C.ar    1  UNL1        0.0394
     13 N           6.3031   -1.2716    0.5146 N.ar    1  UNL1       -0.2624
     14 C           6.5166   -0.0694   -0.0745 C.ar    1  UNL1        0.0311
     15 C           5.5229    0.7994   -0.4942 C.ar    1  UNL1       -0.0006
     16 C           4.2355    0.3381   -0.2619 C.ar    1  UNL1        0.1397
     17 O           3.1020    1.0198   -0.5894 O.2     1  UNL1       -0.4535
     18 C           2.0745    0.2168   -0.1915 C.ar    1  UNL1        0.1532
     19 C           0.6880    0.2711   -0.2109 C.ar    1  UNL1        0.0603
     20 C          -0.0302    1.3705   -0.7451 C.ar    1  UNL1        0.1122
     21 N           0.5401    2.4413   -1.2719 N.ar    1  UNL1       -0.1900
     22 S          -0.7710    3.3723   -1.7213 S.2     1  UNL1        0.1165
     23 N          -2.0250    2.3858   -1.2325 N.ar    1  UNL1       -0.1902
     24 C          -1.4909    1.2699   -0.6886 C.ar    1  UNL1        0.1080
     25 H          -4.1171   -1.2990    1.5606 H       1  UNL1        0.0356
     26 H          -4.1248   -2.0730   -0.0581 H       1  UNL1        0.0356
     27 H          -6.6294   -1.4224    0.6374 H       1  UNL1        0.0575
     28 H          -6.8109    0.9273   -0.4842 H       1  UNL1        0.0615
     29 H          -4.4252    1.8855   -0.9538 H       1  UNL1        0.0620
     30 H          -1.7994   -1.7947    0.8117 H       1  UNL1        0.0635
     31 H           4.9078   -2.6582    1.1998 H       1  UNL1        0.0837
     32 H           7.5644    0.1905   -0.2070 H       1  UNL1        0.0831
     33 H           5.7251    1.7523   -0.9612 H       1  UNL1        0.0670
@<TRIPOS>BOND
     1     1     2    1
     2     2     3    2
     3     3     4    1
     4     4     5    2
     5     5     6    1
     6     6     7   ar
     7     7     8   ar
     8     8     9   ar
     9     9    10   ar
    10    10    11   ar
    11    11    12   ar
    12    12    13   ar
    13    13    14   ar
    14    14    15   ar
    15    15    16   ar
    16    16    17   ar
    17    17    18   ar
    18    18    19   ar
    19    19    20   ar
    20    20    21   ar
    21    21    22   ar
    22    22    23   ar
    23    23    24   ar
    24     5     1    1
    25    24     6   ar
    26    19     8   ar
    27    24    20   ar
    28    18    10   ar
    29    16    11   ar
    30     1    25    1
    31     1    26    1
    32     2    27    1
    33     3    28    1
    34     4    29    1
    35     7    30    1
    36    12    31    1
    37    14    32    1
    38    15    33    1
