@<TRIPOS>MOLECULE
*****
 47 54 0 0 0
SMALL
GASTEIGER

@<TRIPOS>ATOM
      1 C           5.8512   -0.8827    0.9204 C.3     1  UNL1       -0.0086
      2 C           7.1849   -0.2383    0.6755 C.2     1  UNL1       -0.0797
      3 C           7.0154    0.9003   -0.0080 C.2     1  UNL1       -0.0651
      4 C           5.6121    1.1001   -0.2636 C.2     1  UNL1       -0.0580
      5 C           4.8969    0.0878    0.2622 C.2     1  UNL1       -0.0365
      6 C           3.4400   -0.1088    0.2303 C.ar    1  UNL1       -0.0209
      7 C           2.8534   -1.2566    0.7645 C.ar    1  UNL1       -0.0537
      8 C           1.4596   -1.4582    0.7301 C.ar    1  UNL1       -0.0528
      9 C           0.5483   -0.5484    0.1450 C.ar    1  UNL1       -0.0089
     10 C           1.1677    0.6428   -0.3182 C.ar    1  UNL1       -0.0076
     11 C           2.5764    0.8490   -0.3018 C.ar    1  UNL1       -0.0460
     12 C           0.2141    1.5629   -0.7913 C.ar    1  UNL1        0.0077
     13 C           0.4964    2.7668   -1.3959 C.ar    1  UNL1        0.0100
     14 N          -0.6998    3.3192   -1.7752 N.ar    1  UNL1       -0.3659
     15 C          -1.7290    2.4744   -1.4336 C.ar    1  UNL1        0.0100
     16 C          -1.2091    1.4128   -0.7267 C.ar    1  UNL1        0.0084
     17 C          -1.9298    0.2996   -0.2000 C.ar    1  UNL1        0.0023
     18 C          -0.9434   -0.7522    0.0596 C.ar    1  UNL1       -0.0007
     19 C          -1.6500   -1.9950    0.1812 C.ar    1  UNL1       -0.0020
     20 C          -1.0341   -3.2260    0.0721 C.ar    1  UNL1       -0.0160
     21 S          -2.1084   -4.5422    0.2635 S.2     1  UNL1       -0.1038
     22 C          -3.4515   -3.4917    0.3573 C.ar    1  UNL1       -0.0160
     23 C          -3.0936   -2.1630    0.2447 C.ar    1  UNL1       -0.0025
     24 C          -4.0497   -1.1137    0.2211 C.ar    1  UNL1       -0.0069
     25 C          -5.4669   -1.3226    0.3675 C.ar    1  UNL1       -0.0513
     26 C          -6.3994   -0.2864    0.3967 C.ar    1  UNL1       -0.0329
     27 C          -5.8586    1.0085    0.3295 C.ar    1  UNL1        0.1005
     28 N          -6.5894    2.1309    0.4163 N.ar    1  UNL1       -0.1908
     29 S          -5.5199    3.3899    0.3895 S.2     1  UNL1        0.1165
     30 N          -4.0970    2.5699    0.2360 N.ar    1  UNL1       -0.1901
     31 C          -4.3690    1.2536    0.1616 C.ar    1  UNL1        0.1082
     32 C          -3.4096    0.1652    0.0234 C.ar    1  UNL1        0.0192
     33 H           5.8142   -1.8706    0.4501 H       1  UNL1        0.0356
     34 H           5.6608   -0.9712    1.9949 H       1  UNL1        0.0356
     35 H           8.1303   -0.6414    1.0049 H       1  UNL1        0.0575
     36 H           7.7933    1.5770   -0.3275 H       1  UNL1        0.0615
     37 H           5.2392    1.9544   -0.8071 H       1  UNL1        0.0620
     38 H           3.4597   -2.0257    1.2371 H       1  UNL1        0.0624
     39 H           1.0959   -2.3432    1.2452 H       1  UNL1        0.0624
     40 H           2.9712    1.7800   -0.6947 H       1  UNL1        0.0630
     41 H           1.4245    3.2717   -1.6241 H       1  UNL1        0.0813
     42 H          -0.8088    4.1916   -2.2758 H       1  UNL1        0.1648
     43 H          -2.7309    2.7240   -1.7481 H       1  UNL1        0.0813
     44 H          -0.0037   -3.4660   -0.1377 H       1  UNL1        0.0700
     45 H          -4.4293   -3.9381    0.4585 H       1  UNL1        0.0700
     46 H          -5.8631   -2.3306    0.4755 H       1  UNL1        0.0624
     47 H          -7.4617   -0.4595    0.5155 H       1  UNL1        0.0640
@<TRIPOS>BOND
     1     1     2    1
     2     2     3    2
     3     3     4    1
     4     4     5    2
     5     5     6    1
     6     6     7   ar
     7     7     8   ar
     8     8     9   ar
     9     9    10   ar
    10    10    11   ar
    11    10    12   ar
    12    12    13   ar
    13    13    14   ar
    14    14    15   ar
    15    15    16   ar
    16    16    17   ar
    17    17    18   ar
    18    18    19   ar
    19    19    20   ar
    20    20    21   ar
    21    21    22   ar
    22    22    23   ar
    23    23    24   ar
    24    24    25   ar
    25    25    26   ar
    26    26    27   ar
    27    27    28   ar
    28    28    29   ar
    29    29    30   ar
    30    30    31   ar
    31    31    32   ar
    32     5     1    1
    33    11     6   ar
    34    16    12   ar
    35    32    17   ar
    36    18     9   ar
    37    23    19   ar
    38    32    24   ar
    39    31    27   ar
    40     1    33    1
    41     1    34    1
    42     2    35    1
    43     3    36    1
    44     4    37    1
    45     7    38    1
    46     8    39    1
    47    11    40    1
    48    13    41    1
    49    14    42    1
    50    15    43    1
    51    20    44    1
    52    22    45    1
    53    25    46    1
    54    26    47    1
