@<TRIPOS>MOLECULE
*****
 49 55 0 0 0
SMALL
GASTEIGER

@<TRIPOS>ATOM
      1 C           6.4444   -0.4922    0.1497 C.3     1  UNL1       -0.0086
      2 C           7.6776    0.3637    0.1302 C.2     1  UNL1       -0.0797
      3 C           7.3315    1.6474   -0.0256 C.2     1  UNL1       -0.0651
      4 C           5.8976    1.7482   -0.1182 C.2     1  UNL1       -0.0580
      5 C           5.3400    0.5268   -0.0178 C.2     1  UNL1       -0.0365
      6 C           3.9137    0.1696   -0.0632 C.ar    1  UNL1       -0.0210
      7 C           3.5022   -1.1606   -0.0121 C.ar    1  UNL1       -0.0537
      8 C           2.1415   -1.5002   -0.0625 C.ar    1  UNL1       -0.0529
      9 C           1.1130   -0.5360   -0.1782 C.ar    1  UNL1       -0.0095
     10 C           1.5384    0.8048   -0.1729 C.ar    1  UNL1       -0.0167
     11 C           0.5865    1.8172   -0.2176 C.ar    1  UNL1       -0.0534
     12 C          -0.7825    1.5292   -0.1822 C.ar    1  UNL1       -0.0528
     13 C          -1.3190    0.2305   -0.1148 C.ar    1  UNL1       -0.0084
     14 C          -0.3208   -0.8105   -0.2677 C.ar    1  UNL1       -0.0004
     15 C          -0.9762   -2.0427   -0.5593 C.ar    1  UNL1        0.0083
     16 C          -0.4081   -3.2258   -0.9809 C.ar    1  UNL1        0.0100
     17 N          -1.4168   -4.1347   -1.2043 N.ar    1  UNL1       -0.3659
     18 C          -2.6326   -3.5354   -1.0001 C.ar    1  UNL1        0.0100
     19 C          -2.3890   -2.2330   -0.6260 C.ar    1  UNL1        0.0077
     20 C          -3.3617   -1.2508   -0.3582 C.ar    1  UNL1       -0.0076
     21 C          -4.7469   -1.4910   -0.4644 C.ar    1  UNL1       -0.0528
     22 C          -5.6463   -0.4859   -0.1606 C.ar    1  UNL1       -0.0534
     23 C          -5.1939    0.7277    0.3481 C.ar    1  UNL1       -0.0173
     24 C          -6.1533    1.6762    0.7443 C.ar    1  UNL1       -0.0540
     25 C          -5.7805    2.8616    1.3660 C.ar    1  UNL1       -0.0612
     26 C          -4.4426    3.0917    1.6275 C.ar    1  UNL1       -0.0611
     27 C          -3.4823    2.1588    1.2178 C.ar    1  UNL1       -0.0534
     28 C          -3.7963    0.9739    0.5005 C.ar    1  UNL1       -0.0096
     29 C          -2.8059    0.0118    0.0135 C.ar    1  UNL1       -0.0018
     30 C           2.9087    1.1408   -0.1348 C.ar    1  UNL1       -0.0466
     31 H           6.4655   -1.2081   -0.6784 H       1  UNL1        0.0356
     32 H           6.3631   -1.0239    1.1033 H       1  UNL1        0.0356
     33 H           8.6853   -0.0105    0.2272 H       1  UNL1        0.0575
     34 H           8.0040    2.4902   -0.0768 H       1  UNL1        0.0615
     35 H           5.3926    2.6922   -0.2521 H       1  UNL1        0.0620
     36 H           4.2221   -1.9698    0.0778 H       1  UNL1        0.0624
     37 H           1.9016   -2.5509    0.0483 H       1  UNL1        0.0624
     38 H           0.8910    2.8612   -0.2663 H       1  UNL1        0.0624
     39 H          -1.4427    2.3879   -0.2827 H       1  UNL1        0.0624
     40 H           0.6059   -3.5287   -1.1870 H       1  UNL1        0.0813
     41 H          -1.2815   -5.0872   -1.5181 H       1  UNL1        0.1648
     42 H          -3.5446   -4.0935   -1.1585 H       1  UNL1        0.0813
     43 H          -5.1279   -2.4520   -0.7948 H       1  UNL1        0.0624
     44 H          -6.7098   -0.6863   -0.2688 H       1  UNL1        0.0624
     45 H          -7.2141    1.4838    0.5939 H       1  UNL1        0.0624
     46 H          -6.5345    3.5780    1.6788 H       1  UNL1        0.0618
     47 H          -4.1356    3.9850    2.1651 H       1  UNL1        0.0618
     48 H          -2.4619    2.3578    1.5340 H       1  UNL1        0.0624
     49 H           3.1815    2.1935   -0.1500 H       1  UNL1        0.0630
@<TRIPOS>BOND
     1     1     2    1
     2     2     3    2
     3     3     4    1
     4     4     5    2
     5     5     6    1
     6     6     7   ar
     7     7     8   ar
     8     8     9   ar
     9     9    10   ar
    10    10    11   ar
    11    11    12   ar
    12    12    13   ar
    13    13    14   ar
    14    14    15   ar
    15    15    16   ar
    16    16    17   ar
    17    17    18   ar
    18    18    19   ar
    19    19    20   ar
    20    20    21   ar
    21    21    22   ar
    22    22    23   ar
    23    23    24   ar
    24    24    25   ar
    25    25    26   ar
    26    26    27   ar
    27    27    28   ar
    28    28    29   ar
    29    10    30   ar
    30     5     1    1
    31    30     6   ar
    32    14     9   ar
    33    19    15   ar
    34    29    20   ar
    35    29    13   ar
    36    28    23   ar
    37     1    31    1
    38     1    32    1
    39     2    33    1
    40     3    34    1
    41     4    35    1
    42     7    36    1
    43     8    37    1
    44    11    38    1
    45    12    39    1
    46    16    40    1
    47    17    41    1
    48    18    42    1
    49    21    43    1
    50    22    44    1
    51    24    45    1
    52    25    46    1
    53    26    47    1
    54    27    48    1
    55    30    49    1
