@<TRIPOS>MOLECULE
*****
 46 52 0 0 0
SMALL
GASTEIGER

@<TRIPOS>ATOM
      1 C           5.3517    0.7248   -0.1189 C.3     1  UNL1        0.0000
      2 C           6.7267    0.1253   -0.0705 C.2     1  UNL1        0.0000
      3 C           6.6340   -1.2055    0.0428 C.2     1  UNL1        0.0000
      4 C           5.2456   -1.5873    0.0777 C.2     1  UNL1        0.0000
      5 C           4.4645   -0.4945   -0.0132 C.2     1  UNL1        0.0000
      6 C           2.9980   -0.4270   -0.0177 C.ar    1  UNL1        0.0000
      7 C           2.1959   -1.5500    0.1004 C.ar    1  UNL1        0.0000
      8 N           0.8395   -1.5397    0.1001 N.ar    1  UNL1        0.0000
      9 C           0.1793   -0.3644   -0.0364 C.ar    1  UNL1        0.0000
     10 C           0.9047    0.8373   -0.1318 C.ar    1  UNL1        0.0000
     11 C           2.3135    0.7839   -0.1294 C.ar    1  UNL1        0.0000
     12 C           0.1700    2.1126   -0.1861 C.ar    1  UNL1        0.0000
     13 C           0.7299    3.3319   -0.3467 C.2     1  UNL1        0.0000
     14 SI         -0.5502    4.6885   -0.3376 Si      1  UNL1        0.0000
     15 C          -1.8348    3.3615   -0.1124 C.2     1  UNL1        0.0000
     16 C          -1.3011    2.1214   -0.0515 C.ar    1  UNL1        0.0000
     17 C          -2.0327    0.8387    0.0795 C.ar    1  UNL1        0.0000
     18 C          -3.4228    0.8052    0.2702 C.ar    1  UNL1        0.0000
     19 O          -4.2525    1.8816    0.4397 O.2     1  UNL1        0.0000
     20 C          -5.5131    1.4218    0.6033 C.ar    1  UNL1        0.0000
     21 C          -5.5269    0.0530    0.5403 C.ar    1  UNL1        0.0000
     22 C          -4.1756   -0.3609    0.3260 C.ar    1  UNL1        0.0000
     23 C          -3.5150   -1.5990    0.1510 C.ar    1  UNL1        0.0000
     24 C          -4.3158   -2.7665    0.1615 C.ar    1  UNL1        0.0000
     25 C          -3.7508   -4.0188   -0.0345 C.ar    1  UNL1        0.0000
     26 C          -2.3890   -4.1141   -0.2526 C.ar    1  UNL1        0.0000
     27 C          -1.5938   -2.9590   -0.2571 C.ar    1  UNL1        0.0000
     28 C          -2.1022   -1.6470   -0.0350 C.ar    1  UNL1        0.0000
     29 C          -1.3346   -0.4122   -0.0061 C.ar    1  UNL1        0.0000
     30 H           5.2030    1.4082    0.7233 H       1  UNL1        0.0000
     31 H           5.1997    1.2559   -1.0642 H       1  UNL1        0.0000
     32 H           7.6447    0.6910   -0.1201 H       1  UNL1        0.0000
     33 H           7.4573   -1.9015    0.1006 H       1  UNL1        0.0000
     34 H           4.9334   -2.6169    0.1646 H       1  UNL1        0.0000
     35 H           2.6175   -2.5452    0.2067 H       1  UNL1        0.0000
     36 H           2.8794    1.7064   -0.2019 H       1  UNL1        0.0000
     37 H           1.7689    3.5868   -0.4682 H       1  UNL1        0.0000
     38 H          -0.6486    5.3735   -1.6488 H       1  UNL1        0.0000
     39 H          -0.4175    5.5750    0.8434 H       1  UNL1        0.0000
     40 H          -2.8709    3.6498   -0.0667 H       1  UNL1        0.0000
     41 H          -6.2740    2.1756    0.7489 H       1  UNL1        0.0000
     42 H          -6.4027   -0.5722    0.6344 H       1  UNL1        0.0000
     43 H          -5.3903   -2.7102    0.3156 H       1  UNL1        0.0000
     44 H          -4.3710   -4.9102   -0.0288 H       1  UNL1        0.0000
     45 H          -1.9286   -5.0835   -0.4259 H       1  UNL1        0.0000
     46 H          -0.5426   -3.1244   -0.4682 H       1  UNL1        0.0000
@<TRIPOS>BOND
     1     1     2    1
     2     2     3    2
     3     3     4    1
     4     4     5    2
     5     5     6    1
     6     6     7   ar
     7     7     8   ar
     8     8     9   ar
     9     9    10   ar
    10    10    11   ar
    11    10    12   ar
    12    12    13    2
    13    13    14    1
    14    14    15    1
    15    15    16    2
    16    16    17   ar
    17    17    18   ar
    18    18    19   ar
    19    19    20   ar
    20    20    21   ar
    21    21    22   ar
    22    22    23   ar
    23    23    24   ar
    24    24    25   ar
    25    25    26   ar
    26    26    27   ar
    27    27    28   ar
    28    28    29   ar
    29     5     1    1
    30    11     6   ar
    31    16    12   ar
    32    29    17   ar
    33    29     9   ar
    34    22    18   ar
    35    28    23   ar
    36     1    30    1
    37     1    31    1
    38     2    32    1
    39     3    33    1
    40     4    34    1
    41     7    35    1
    42    11    36    1
    43    13    37    1
    44    14    38    1
    45    14    39    1
    46    15    40    1
    47    20    41    1
    48    21    42    1
    49    24    43    1
    50    25    44    1
    51    26    45    1
    52    27    46    1
