@<TRIPOS>MOLECULE
*****
 44 50 0 0 0
SMALL
GASTEIGER

@<TRIPOS>ATOM
      1 C           5.3710    0.8812   -0.3572 C.3     1  UNL1       -0.0086
      2 C           6.6525    0.1004   -0.3515 C.2     1  UNL1       -0.0797
      3 C           6.3821   -1.2085   -0.2737 C.2     1  UNL1       -0.0651
      4 C           4.9555   -1.4007   -0.2230 C.2     1  UNL1       -0.0580
      5 C           4.3277   -0.2107   -0.2691 C.2     1  UNL1       -0.0350
      6 C           2.8854    0.0609   -0.2429 C.ar    1  UNL1       -0.0028
      7 C           2.3792    1.3386   -0.2970 C.ar    1  UNL1        0.0357
      8 N           1.0616    1.6367   -0.2758 N.ar    1  UNL1       -0.2537
      9 C           0.1265    0.6638   -0.1974 C.ar    1  UNL1        0.0800
     10 C           0.5152   -0.6928   -0.1357 C.ar    1  UNL1        0.0093
     11 C           1.9204   -0.9446   -0.1619 C.ar    1  UNL1       -0.0431
     12 C          -0.4687   -1.7407   -0.0519 C.ar    1  UNL1       -0.0080
     13 C          -0.1031   -3.1170    0.0116 C.ar    1  UNL1       -0.0534
     14 C          -1.0284   -4.1550    0.0932 C.ar    1  UNL1       -0.0611
     15 C          -2.3692   -3.8531    0.1147 C.ar    1  UNL1       -0.0611
     16 C          -2.7664   -2.5180    0.0544 C.ar    1  UNL1       -0.0533
     17 C          -1.8552   -1.4247   -0.0298 C.ar    1  UNL1       -0.0059
     18 C          -2.2563   -0.0405   -0.0927 C.ar    1  UNL1        0.0353
     19 C          -3.6398    0.3774   -0.0763 C.ar    1  UNL1        0.1437
     20 O          -4.7655   -0.4180   -0.0023 O.2     1  UNL1       -0.4623
     21 C          -5.8663    0.3849   -0.0144 C.ar    1  UNL1        0.0932
     22 C          -5.5089    1.7107   -0.0953 C.ar    1  UNL1       -0.0155
     23 C          -4.1165    1.6678   -0.1320 C.ar    1  UNL1        0.0290
     24 C          -3.1706    2.7070   -0.2141 C.ar    1  UNL1        0.0005
     25 C          -3.4925    4.0309   -0.2759 C.ar    1  UNL1       -0.0159
     26 S          -2.0405    4.9375   -0.3650 S.2     1  UNL1       -0.1038
     27 C          -1.0695    3.5075   -0.3158 C.ar    1  UNL1       -0.0159
     28 C          -1.8022    2.3368   -0.2327 C.ar    1  UNL1       -0.0003
     29 C          -1.2554    0.9964   -0.1763 C.ar    1  UNL1        0.0204
     30 H           5.2778    1.4565   -1.2840 H       1  UNL1        0.0356
     31 H           5.3285    1.5525    0.5067 H       1  UNL1        0.0356
     32 H           7.6378    0.5384   -0.4029 H       1  UNL1        0.0575
     33 H           7.1046   -2.0104   -0.2511 H       1  UNL1        0.0615
     34 H           4.5083   -2.3805   -0.1578 H       1  UNL1        0.0620
     35 H           3.0201    2.2127   -0.3618 H       1  UNL1        0.0836
     36 H           2.2800   -1.9657   -0.1174 H       1  UNL1        0.0631
     37 H           0.9373   -3.4275   -0.0010 H       1  UNL1        0.0624
     38 H          -0.6940   -5.1875    0.1392 H       1  UNL1        0.0618
     39 H          -3.1138   -4.6417    0.1779 H       1  UNL1        0.0618
     40 H          -3.8387   -2.3602    0.0761 H       1  UNL1        0.0624
     41 H          -6.8147   -0.1315    0.0397 H       1  UNL1        0.1030
     42 H          -6.1779    2.5578   -0.1219 H       1  UNL1        0.0655
     43 H          -4.4565    4.5194   -0.2750 H       1  UNL1        0.0700
     44 H          -0.0013    3.6534   -0.3535 H       1  UNL1        0.0700
@<TRIPOS>BOND
     1     1     2    1
     2     2     3    2
     3     3     4    1
     4     4     5    2
     5     5     6    1
     6     6     7   ar
     7     7     8   ar
     8     8     9   ar
     9     9    10   ar
    10    10    11   ar
    11    10    12   ar
    12    12    13   ar
    13    13    14   ar
    14    14    15   ar
    15    15    16   ar
    16    16    17   ar
    17    17    18   ar
    18    18    19   ar
    19    19    20   ar
    20    20    21   ar
    21    21    22   ar
    22    22    23   ar
    23    23    24   ar
    24    24    25   ar
    25    25    26   ar
    26    26    27   ar
    27    27    28   ar
    28    28    29   ar
    29     5     1    1
    30    11     6   ar
    31    17    12   ar
    32    29    18   ar
    33    29     9   ar
    34    23    19   ar
    35    28    24   ar
    36     1    30    1
    37     1    31    1
    38     2    32    1
    39     3    33    1
    40     4    34    1
    41     7    35    1
    42    11    36    1
    43    13    37    1
    44    14    38    1
    45    15    39    1
    46    16    40    1
    47    21    41    1
    48    22    42    1
    49    25    43    1
    50    27    44    1
