@<TRIPOS>MOLECULE
*****
 40 45 0 0 0
SMALL
GASTEIGER

@<TRIPOS>ATOM
      1 C           5.2826    0.7729   -0.4128 C.3     1  UNL1        0.0000
      2 C           6.6250    0.3035    0.0670 C.2     1  UNL1        0.0000
      3 C           6.4660   -0.6995    0.9394 C.2     1  UNL1        0.0000
      4 C           5.0612   -0.9704    1.1065 C.2     1  UNL1        0.0000
      5 C           4.3363   -0.1362    0.3376 C.2     1  UNL1        0.0000
      6 C           2.8767   -0.0672    0.2034 C.ar    1  UNL1        0.0000
      7 C           2.0180   -0.9040    0.8944 C.ar    1  UNL1        0.0000
      8 N           0.6637   -0.8777    0.8032 N.ar    1  UNL1        0.0000
      9 C           0.0477    0.0129   -0.0093 C.ar    1  UNL1        0.0000
     10 C           0.8512    0.9074   -0.7538 C.ar    1  UNL1        0.0000
     11 C           0.2778    1.8504   -1.6100 C.ar    1  UNL1        0.0000
     12 C          -1.1005    1.9312   -1.7500 C.ar    1  UNL1        0.0000
     13 C          -1.9386    1.0686   -1.0351 C.ar    1  UNL1        0.0000
     14 C          -3.4127    1.1386   -1.1698 C.ar    1  UNL1        0.0000
     15 S          -4.2335    2.2494   -2.1847 S.2     1  UNL1        0.0000
     16 C          -5.7669    1.6478   -1.7332 C.ar    1  UNL1        0.0000
     17 C          -5.6693    0.6178   -0.8252 C.ar    1  UNL1        0.0000
     18 C          -4.3125    0.3266   -0.5025 C.ar    1  UNL1        0.0000
     19 C          -3.8147   -0.6681    0.3945 C.ar    1  UNL1        0.0000
     20 C          -4.5661   -1.5287    1.1114 C.2     1  UNL1        0.0000
     21 SI         -3.5123   -2.6518    2.1483 Si      1  UNL1        0.0000
     22 C          -2.0212   -1.7805    1.4589 C.2     1  UNL1        0.0000
     23 C          -2.3381   -0.7997    0.5835 C.ar    1  UNL1        0.0000
     24 C          -1.3656    0.0959   -0.1531 C.ar    1  UNL1        0.0000
     25 C           2.2527    0.8531   -0.6357 C.ar    1  UNL1        0.0000
     26 H           5.1287    1.8242   -0.1490 H       1  UNL1        0.0000
     27 H           5.1967    0.6416   -1.4963 H       1  UNL1        0.0000
     28 H           7.5695    0.7190   -0.2501 H       1  UNL1        0.0000
     29 H           7.2529   -1.2348    1.4491 H       1  UNL1        0.0000
     30 H           4.6978   -1.7433    1.7666 H       1  UNL1        0.0000
     31 H           2.3863   -1.6626    1.5787 H       1  UNL1        0.0000
     32 H           0.9003    2.5366   -2.1810 H       1  UNL1        0.0000
     33 H          -1.5000    2.6809   -2.4277 H       1  UNL1        0.0000
     34 H          -6.6658    2.0766   -2.1539 H       1  UNL1        0.0000
     35 H          -6.5333    0.1069   -0.4200 H       1  UNL1        0.0000
     36 H          -5.6407   -1.6062    1.1256 H       1  UNL1        0.0000
     37 H          -3.6071   -4.0677    1.7176 H       1  UNL1        0.0000
     38 H          -3.7009   -2.4174    3.6005 H       1  UNL1        0.0000
     39 H          -1.0445   -2.0957    1.7836 H       1  UNL1        0.0000
     40 H           2.8534    1.5493   -1.2164 H       1  UNL1        0.0000
@<TRIPOS>BOND
     1     1     2    1
     2     2     3    2
     3     3     4    1
     4     4     5    2
     5     5     6    1
     6     6     7   ar
     7     7     8   ar
     8     8     9   ar
     9     9    10   ar
    10    10    11   ar
    11    11    12   ar
    12    12    13   ar
    13    13    14   ar
    14    14    15   ar
    15    15    16   ar
    16    16    17   ar
    17    17    18   ar
    18    18    19   ar
    19    19    20    2
    20    20    21    1
    21    21    22    1
    22    22    23    2
    23    23    24   ar
    24    10    25   ar
    25     5     1    1
    26    25     6   ar
    27    24     9   ar
    28    24    13   ar
    29    18    14   ar
    30    23    19   ar
    31     1    26    1
    32     1    27    1
    33     2    28    1
    34     3    29    1
    35     4    30    1
    36     7    31    1
    37    11    32    1
    38    12    33    1
    39    16    34    1
    40    17    35    1
    41    20    36    1
    42    21    37    1
    43    21    38    1
    44    22    39    1
    45    25    40    1
