@<TRIPOS>MOLECULE
*****
 35 40 0 0 0
SMALL
GASTEIGER

@<TRIPOS>ATOM
      1 C           4.5322   -2.0972   -1.7278 C.3     1  UNL1       -0.0051
      2 C           5.6263   -0.9992   -1.6204 C.2     1  UNL1       -0.0776
      3 C           5.1463    0.1694   -1.1249 C.2     1  UNL1       -0.0416
      4 C           3.7913   -0.0787   -0.8923 C.ar    1  UNL1        0.0450
      5 N           2.7641    0.6520   -0.4139 N.ar    1  UNL1       -0.3527
      6 C           1.6337   -0.1591   -0.4188 C.ar    1  UNL1        0.0742
      7 C           2.0182   -1.4208   -0.9233 C.ar    1  UNL1        0.0931
      8 N           1.1721   -2.4648   -1.0708 N.ar    1  UNL1       -0.2525
      9 C          -0.1058   -2.2246   -0.6958 C.ar    1  UNL1        0.0361
     10 C          -0.6220   -1.0325   -0.1873 C.ar    1  UNL1        0.0036
     11 C          -2.0154   -0.9104    0.1718 C.ar    1  UNL1       -0.0421
     12 C          -2.6263    0.2668    0.6816 C.ar    1  UNL1        0.0185
     13 C          -4.0357    0.3312    1.0286 C.ar    1  UNL1        0.1089
     14 N          -4.6698   -0.6132    1.6964 N.ar    1  UNL1       -0.2473
     15 C          -6.0058   -0.2894    1.8240 C.ar    1  UNL1        0.0354
     16 C          -6.3912    0.8870    1.2221 C.ar    1  UNL1       -0.0042
     17 S          -5.0393    1.6141    0.4638 S.2     1  UNL1       -0.0756
     18 C          -1.6903    1.2945    0.8312 C.ar    1  UNL1        0.0302
     19 C          -1.8666    2.5493    1.3570 C.ar    1  UNL1        0.1001
     20 O          -0.6863    3.2345    1.3280 O.2     1  UNL1       -0.4698
     21 C           0.2609    2.4047    0.7980 C.ar    1  UNL1        0.1001
     22 C          -0.2990    1.1925    0.4856 C.ar    1  UNL1        0.0303
     23 C           0.3035    0.0457   -0.0443 C.ar    1  UNL1        0.0197
     24 C           3.3782   -1.3376   -1.2108 C.ar    1  UNL1        0.0070
     25 H           4.7843   -2.9541   -1.0976 H       1  UNL1        0.0357
     26 H           4.3972   -2.4052   -2.7679 H       1  UNL1        0.0357
     27 H           6.6512   -1.1725   -1.9148 H       1  UNL1        0.0576
     28 H           5.6911    1.0844   -0.9501 H       1  UNL1        0.0635
     29 H           2.8066    1.6129   -0.1104 H       1  UNL1        0.1660
     30 H          -0.7564   -3.0881   -0.8271 H       1  UNL1        0.0836
     31 H          -2.6575   -1.7859    0.0420 H       1  UNL1        0.0631
     32 H          -6.6629   -0.9577    2.3675 H       1  UNL1        0.0835
     33 H          -7.3737    1.3346    1.1847 H       1  UNL1        0.0709
     34 H          -2.6987    3.0955    1.7785 H       1  UNL1        0.1036
     35 H           1.2458    2.8398    0.7373 H       1  UNL1        0.1036
@<TRIPOS>BOND
     1     1     2    1
     2     2     3    2
     3     3     4    1
     4     4     5   ar
     5     5     6   ar
     6     6     7   ar
     7     7     8   ar
     8     8     9   ar
     9     9    10   ar
    10    10    11   ar
    11    11    12   ar
    12    12    13    1
    13    13    14   ar
    14    14    15   ar
    15    15    16   ar
    16    16    17   ar
    17    12    18   ar
    18    18    19   ar
    19    19    20   ar
    20    20    21   ar
    21    21    22   ar
    22    22    23   ar
    23     7    24   ar
    24    24     1    1
    25    24     4   ar
    26    23     6   ar
    27    23    10   ar
    28    17    13   ar
    29    22    18   ar
    30     1    25    1
    31     1    26    1
    32     2    27    1
    33     3    28    1
    34     5    29    1
    35     9    30    1
    36    11    31    1
    37    15    32    1
    38    16    33    1
    39    19    34    1
    40    21    35    1
