@<TRIPOS>MOLECULE
*****
 29 33 0 0 0
SMALL
GASTEIGER

@<TRIPOS>ATOM
      1 C          -4.6138    0.9020    0.8572 C.3     1  UNL1        0.0000
      2 C          -5.5796    0.2136   -0.1507 C.2     1  UNL1        0.0000
      3 C          -4.9240   -0.4864   -1.1138 C.2     1  UNL1        0.0000
      4 C          -3.5678   -0.3133   -0.8185 C.ar    1  UNL1        0.0000
      5 N          -2.4208   -0.7405   -1.3783 N.ar    1  UNL1        0.0000
      6 C          -1.4033   -0.2107   -0.5923 C.ar    1  UNL1        0.0000
      7 C          -0.0067   -0.2027   -0.5288 C.ar    1  UNL1        0.0000
      8 SI          1.4579   -0.8931   -1.4483 Si      1  UNL1        0.0000
      9 C           2.5981   -0.0327   -0.1917 C.2     1  UNL1        0.0000
     10 C           1.8838    0.6466    0.7404 C.2     1  UNL1        0.0000
     11 C           0.4756    0.5363    0.5322 C.ar    1  UNL1        0.0000
     12 S          -0.7505    1.2422    1.4826 S.2     1  UNL1        0.0000
     13 C          -1.9551    0.5376    0.4430 C.ar    1  UNL1        0.0000
     14 C          -3.3439    0.4585    0.2791 C.ar    1  UNL1        0.0000
     15 C           4.0174   -0.0706   -0.1923 C.ar    1  UNL1        0.0000
     16 N           4.7831    0.5395    0.6992 N.ar    1  UNL1        0.0000
     17 C           6.1218    0.3258    0.4467 C.ar    1  UNL1        0.0000
     18 C           6.3972   -0.4556   -0.6485 C.ar    1  UNL1        0.0000
     19 S           4.9361   -0.9400   -1.3879 S.2     1  UNL1        0.0000
     20 H          -4.7766    0.5184    1.8677 H       1  UNL1        0.0000
     21 H          -4.7374    1.9875    0.8266 H       1  UNL1        0.0000
     22 H          -6.6537    0.2979   -0.0721 H       1  UNL1        0.0000
     23 H          -5.3540   -1.0510   -1.9268 H       1  UNL1        0.0000
     24 H          -2.2769   -1.3220   -2.1935 H       1  UNL1        0.0000
     25 H           1.6051   -0.3413   -2.8201 H       1  UNL1        0.0000
     26 H           1.5514   -2.3745   -1.3792 H       1  UNL1        0.0000
     27 H           2.3152    1.2142    1.5576 H       1  UNL1        0.0000
     28 H           6.8614    0.7696    1.1019 H       1  UNL1        0.0000
     29 H           7.3597   -0.7553   -1.0366 H       1  UNL1        0.0000
@<TRIPOS>BOND
     1     1     2    1
     2     2     3    2
     3     3     4    1
     4     4     5   ar
     5     5     6   ar
     6     6     7   ar
     7     7     8    1
     8     8     9    1
     9     9    10    2
    10    10    11    1
    11    11    12   ar
    12    12    13   ar
    13    13    14   ar
    14     9    15    1
    15    15    16   ar
    16    16    17   ar
    17    17    18   ar
    18    18    19   ar
    19    14     1    1
    20    19    15   ar
    21    14     4   ar
    22    13     6   ar
    23    11     7   ar
    24     1    20    1
    25     1    21    1
    26     2    22    1
    27     3    23    1
    28     5    24    1
    29     8    25    1
    30     8    26    1
    31    10    27    1
    32    17    28    1
    33    18    29    1
