@<TRIPOS>MOLECULE
*****
 36 41 0 0 0
SMALL
GASTEIGER

@<TRIPOS>ATOM
      1 C           5.4776    0.4943   -1.6919 C.3     1  UNL1       -0.0036
      2 C           6.4302   -0.4499   -0.8994 C.2     1  UNL1       -0.0776
      3 C           5.7813   -1.1922    0.0369 C.2     1  UNL1       -0.0416
      4 C           4.4395   -0.8088   -0.0708 C.ar    1  UNL1        0.0465
      5 N           3.3011   -1.1698    0.5693 N.ar    1  UNL1       -0.3516
      6 C           2.3008   -0.4112   -0.0145 C.ar    1  UNL1        0.0899
      7 C           0.9429   -0.1218   -0.0178 C.ar    1  UNL1        0.0261
      8 C          -0.3283   -0.4543    0.6228 C.3     1  UNL1        0.0038
      9 C          -1.2821    0.4869   -0.1657 C.2     1  UNL1       -0.0317
     10 C          -0.5820    1.2081   -1.0914 C.2     1  UNL1       -0.0149
     11 C           0.7716    0.8259   -0.9887 C.ar    1  UNL1        0.1344
     12 O           1.9274    1.1663   -1.6112 O.2     1  UNL1       -0.4532
     13 C           2.8641    0.3855   -0.9898 C.ar    1  UNL1        0.1574
     14 C           4.2248    0.1387   -1.0322 C.ar    1  UNL1        0.0239
     15 C          -2.7351    0.5912    0.0492 C.ar    1  UNL1       -0.0132
     16 C          -3.5577    1.4761   -0.7141 C.ar    1  UNL1       -0.0537
     17 C          -4.9730    1.6370   -0.5679 C.ar    1  UNL1       -0.0606
     18 C          -5.7433    0.9285    0.3647 C.ar    1  UNL1       -0.0535
     19 C          -4.9634    0.0584    1.1215 C.ar    1  UNL1       -0.0103
     20 C          -5.5338   -0.7278    2.0923 C.ar    1  UNL1       -0.0166
     21 S          -4.3611   -1.6993    2.8693 S.2     1  UNL1       -0.1039
     22 C          -3.0908   -1.0602    1.8985 C.ar    1  UNL1       -0.0160
     23 C          -3.5226   -0.1207    0.9892 C.ar    1  UNL1       -0.0035
     24 H           5.4854    0.2413   -2.7551 H       1  UNL1        0.0357
     25 H           5.7584    1.5391   -1.5370 H       1  UNL1        0.0357
     26 H           7.4924   -0.4923   -1.0923 H       1  UNL1        0.0576
     27 H           6.2062   -1.9171    0.7140 H       1  UNL1        0.0635
     28 H           3.1610   -1.8397    1.3145 H       1  UNL1        0.1660
     29 H          -0.3070   -0.1993    1.6862 H       1  UNL1        0.0363
     30 H          -0.5833   -1.5056    0.4613 H       1  UNL1        0.0363
     31 H          -0.9332    1.9436   -1.7959 H       1  UNL1        0.0657
     32 H          -3.0998    2.0978   -1.4837 H       1  UNL1        0.0624
     33 H          -5.4758    2.3516   -1.2206 H       1  UNL1        0.0618
     34 H          -6.8126    1.0614    0.4631 H       1  UNL1        0.0624
     35 H          -6.5713   -0.7892    2.3917 H       1  UNL1        0.0699
     36 H          -2.1087   -1.4505    2.0955 H       1  UNL1        0.0700
@<TRIPOS>BOND
     1     1     2    1
     2     2     3    2
     3     3     4    1
     4     4     5   ar
     5     5     6   ar
     6     6     7   ar
     7     7     8    1
     8     8     9    1
     9     9    10    2
    10    10    11    1
    11    11    12   ar
    12    12    13   ar
    13    13    14   ar
    14     9    15    1
    15    15    16   ar
    16    16    17   ar
    17    17    18   ar
    18    18    19   ar
    19    19    20   ar
    20    20    21   ar
    21    21    22   ar
    22    22    23   ar
    23    14     1    1
    24    23    15   ar
    25    14     4   ar
    26    23    19   ar
    27    13     6   ar
    28    11     7   ar
    29     1    24    1
    30     1    25    1
    31     2    26    1
    32     3    27    1
    33     5    28    1
    34     8    29    1
    35     8    30    1
    36    10    31    1
    37    16    32    1
    38    17    33    1
    39    18    34    1
    40    20    35    1
    41    22    36    1
