@<TRIPOS>MOLECULE
*****
 38 43 0 0 0
SMALL
GASTEIGER

@<TRIPOS>ATOM
      1 SI         -1.2932    1.3043    3.6777 Si      1  UNL1        0.0000
      2 C          -2.5373    0.9577    2.3334 C.2     1  UNL1        0.0000
      3 C          -1.9644    0.5354    1.1846 C.ar    1  UNL1        0.0000
      4 C          -2.6710    0.1724   -0.0835 C.ar    1  UNL1        0.0000
      5 C          -1.9038   -0.2316   -1.1314 C.ar    1  UNL1        0.0000
      6 C          -0.4882   -0.2974   -0.9996 C.ar    1  UNL1        0.0000
      7 O           0.3776   -0.6884   -1.9848 O.2     1  UNL1        0.0000
      8 C           1.6386   -0.6193   -1.4796 C.ar    1  UNL1        0.0000
      9 C           2.7952   -0.9419   -2.1887 C.ar    1  UNL1        0.0000
     10 C           4.0205   -0.8145   -1.5146 C.ar    1  UNL1        0.0000
     11 C           5.2282   -1.1177   -2.1530 C.ar    1  UNL1        0.0000
     12 C           6.4128   -0.9769   -1.4478 C.ar    1  UNL1        0.0000
     13 N           6.4796   -0.5607   -0.1677 N.ar    1  UNL1        0.0000
     14 C           5.3028   -0.2717    0.4348 C.ar    1  UNL1        0.0000
     15 C           4.0501   -0.3755   -0.1740 C.ar    1  UNL1        0.0000
     16 C           2.8539   -0.0588    0.5080 C.ar    1  UNL1        0.0000
     17 C           1.6203   -0.1835   -0.1598 C.ar    1  UNL1        0.0000
     18 C           0.2481    0.0196    0.1359 C.ar    1  UNL1        0.0000
     19 C          -0.4646    0.4553    1.2925 C.ar    1  UNL1        0.0000
     20 C           0.0467    0.8090    2.4868 C.2     1  UNL1        0.0000
     21 C          -4.1533    0.2099   -0.3168 C.ar    1  UNL1        0.0000
     22 N          -4.9518    0.5992    0.6788 N.ar    1  UNL1        0.0000
     23 C          -6.2529    0.6072    0.3986 C.ar    1  UNL1        0.0000
     24 N          -6.8074    0.2688   -0.7596 N.ar    1  UNL1        0.0000
     25 C          -5.9265   -0.1023   -1.6808 C.ar    1  UNL1        0.0000
     26 N          -4.6060   -0.1529   -1.5254 N.ar    1  UNL1        0.0000
     27 H          -1.2259    2.7410    4.0362 H       1  UNL1        0.0000
     28 H          -1.4091    0.3648    4.8184 H       1  UNL1        0.0000
     29 H          -3.5822    1.1076    2.5442 H       1  UNL1        0.0000
     30 H          -2.3161   -0.5166   -2.0936 H       1  UNL1        0.0000
     31 H           2.7298   -1.2757   -3.2180 H       1  UNL1        0.0000
     32 H           5.2547   -1.4587   -3.1828 H       1  UNL1        0.0000
     33 H           7.3688   -1.2033   -1.9116 H       1  UNL1        0.0000
     34 H           5.4007    0.0601    1.4656 H       1  UNL1        0.0000
     35 H           2.8881    0.2778    1.5385 H       1  UNL1        0.0000
     36 H           1.0792    0.8284    2.7875 H       1  UNL1        0.0000
     37 H          -6.9234    0.9199    1.1918 H       1  UNL1        0.0000
     38 H          -6.3186   -0.3911   -2.6501 H       1  UNL1        0.0000
@<TRIPOS>BOND
     1     1     2    1
     2     2     3    2
     3     3     4   ar
     4     4     5   ar
     5     5     6   ar
     6     6     7   ar
     7     7     8   ar
     8     8     9   ar
     9     9    10   ar
    10    10    11   ar
    11    11    12   ar
    12    12    13   ar
    13    13    14   ar
    14    14    15   ar
    15    15    16   ar
    16    16    17   ar
    17    17    18   ar
    18    18    19   ar
    19    19    20    2
    20     4    21    1
    21    21    22   ar
    22    22    23   ar
    23    23    24   ar
    24    24    25   ar
    25    25    26   ar
    26    20     1    1
    27    26    21   ar
    28    19     3   ar
    29    18     6   ar
    30    17     8   ar
    31    15    10   ar
    32     1    27    1
    33     1    28    1
    34     2    29    1
    35     5    30    1
    36     9    31    1
    37    11    32    1
    38    12    33    1
    39    14    34    1
    40    16    35    1
    41    20    36    1
    42    23    37    1
    43    25    38    1
