@<TRIPOS>MOLECULE
*****
 38 43 0 0 0
SMALL
GASTEIGER

@<TRIPOS>ATOM
      1 C          -4.9664    1.0696    0.0220 C.3     1  UNL1       -0.0065
      2 C          -5.0975    2.6115    0.1521 C.2     1  UNL1       -0.0777
      3 C          -3.8950    3.2368    0.2222 C.2     1  UNL1       -0.0417
      4 C          -2.9538    2.2054    0.1470 C.ar    1  UNL1        0.0436
      5 N          -1.5948    2.1676    0.1626 N.ar    1  UNL1       -0.3515
      6 C          -1.2551    0.8393    0.0538 C.ar    1  UNL1        0.0913
      7 C           0.1166    0.1400    0.0132 C.ar    1  UNL1        0.1601
      8 O           1.3692    0.6590    0.0751 O.2     1  UNL1       -0.4527
      9 C           2.2438   -0.4099   -0.0039 C.ar    1  UNL1        0.1364
     10 C           1.5380   -1.6062   -0.1162 C.ar    1  UNL1       -0.0074
     11 C           0.2040   -1.2224   -0.1021 C.ar    1  UNL1        0.0320
     12 C          -1.0207   -1.9363   -0.1802 C.ar    1  UNL1        0.0109
     13 C          -1.2066   -3.2849   -0.2980 C.ar    1  UNL1        0.0101
     14 N          -2.5824   -3.4720   -0.3331 N.ar    1  UNL1       -0.3659
     15 C          -3.2473   -2.2570   -0.2385 C.ar    1  UNL1        0.0101
     16 C          -2.2699   -1.3074   -0.1438 C.ar    1  UNL1        0.0096
     17 C          -2.4208    0.0976   -0.0258 C.ar    1  UNL1        0.0165
     18 C          -3.4977    0.9485    0.0320 C.ar    1  UNL1       -0.0105
     19 C           3.6683   -0.0768    0.0448 C.ar    1  UNL1        0.0173
     20 C           4.1029    1.2524    0.1653 C.ar    1  UNL1       -0.0511
     21 C           5.4651    1.5640    0.2114 C.ar    1  UNL1       -0.0611
     22 C           6.4152    0.5492    0.1375 C.ar    1  UNL1       -0.0617
     23 C           6.0042   -0.7756    0.0177 C.ar    1  UNL1       -0.0611
     24 C           4.6411   -1.0857   -0.0283 C.ar    1  UNL1       -0.0511
     25 H          -5.4072    0.7241   -0.9168 H       1  UNL1        0.0356
     26 H          -5.4320    0.5708    0.8762 H       1  UNL1        0.0356
     27 H          -6.0549    3.1108    0.1815 H       1  UNL1        0.0576
     28 H          -3.7053    4.2949    0.3153 H       1  UNL1        0.0635
     29 H          -0.9504    2.9431    0.2379 H       1  UNL1        0.1660
     30 H           1.9543   -2.5985   -0.1951 H       1  UNL1        0.0662
     31 H          -0.5299   -4.1253   -0.3604 H       1  UNL1        0.0813
     32 H          -3.0384   -4.3710   -0.4163 H       1  UNL1        0.1648
     33 H          -4.3269   -2.2100   -0.2495 H       1  UNL1        0.0813
     34 H           3.3803    2.0635    0.2249 H       1  UNL1        0.0625
     35 H           5.7801    2.5999    0.3051 H       1  UNL1        0.0618
     36 H           7.4742    0.7908    0.1733 H       1  UNL1        0.0618
     37 H           6.7432   -1.5706   -0.0403 H       1  UNL1        0.0618
     38 H           4.3524   -2.1292   -0.1222 H       1  UNL1        0.0625
@<TRIPOS>BOND
     1     1     2    1
     2     2     3    2
     3     3     4    1
     4     4     5   ar
     5     5     6   ar
     6     6     7   ar
     7     7     8   ar
     8     8     9   ar
     9     9    10   ar
    10    10    11   ar
    11    11    12   ar
    12    12    13   ar
    13    13    14   ar
    14    14    15   ar
    15    15    16   ar
    16    16    17   ar
    17    17    18   ar
    18     9    19    1
    19    19    20   ar
    20    20    21   ar
    21    21    22   ar
    22    22    23   ar
    23    23    24   ar
    24    18     1    1
    25    24    19   ar
    26    18     4   ar
    27    17     6   ar
    28    11     7   ar
    29    16    12   ar
    30     1    25    1
    31     1    26    1
    32     2    27    1
    33     3    28    1
    34     5    29    1
    35    10    30    1
    36    13    31    1
    37    14    32    1
    38    15    33    1
    39    20    34    1
    40    21    35    1
    41    22    36    1
    42    23    37    1
    43    24    38    1
