@<TRIPOS>MOLECULE
*****
 40 46 0 0 0
SMALL
GASTEIGER

@<TRIPOS>ATOM
      1 C           5.2166   -0.1242    0.4096 C.3     1  UNL1       -0.0065
      2 C           5.7703   -1.5699    0.5022 C.2     1  UNL1       -0.0777
      3 C           4.7881   -2.5052    0.5109 C.2     1  UNL1       -0.0417
      4 C           3.6026   -1.7711    0.4292 C.ar    1  UNL1        0.0435
      5 N           2.2950   -2.0959    0.3952 N.ar    1  UNL1       -0.3535
      6 C           1.6121   -0.9031    0.3100 C.ar    1  UNL1        0.0623
      7 C           0.0808   -0.6862    0.2406 C.ar    1  UNL1        0.0444
      8 S          -1.0742   -1.9105    0.2568 S.2     1  UNL1       -0.0860
      9 C          -2.3832   -0.7883    0.1509 C.ar    1  UNL1        0.0241
     10 C          -1.8732    0.5041    0.1067 C.ar    1  UNL1       -0.0384
     11 C          -0.4347    0.5886    0.1578 C.ar    1  UNL1       -0.0005
     12 C           0.5015    1.6776    0.1399 C.ar    1  UNL1       -0.0089
     13 C           0.0150    2.9982    0.0560 C.ar    1  UNL1       -0.0534
     14 C           0.8917    4.0864    0.0358 C.ar    1  UNL1       -0.0611
     15 C           2.2685    3.8848    0.0985 C.ar    1  UNL1       -0.0611
     16 C           2.7873    2.5921    0.1823 C.ar    1  UNL1       -0.0534
     17 C           1.9283    1.4767    0.2045 C.ar    1  UNL1       -0.0078
     18 C           2.4930    0.1766    0.2904 C.ar    1  UNL1        0.0125
     19 C           3.7656   -0.4146    0.3684 C.ar    1  UNL1       -0.0106
     20 C          -3.7759   -1.2699    0.1210 C.ar    1  UNL1        0.0350
     21 C          -4.1696   -2.6206    0.1722 C.ar    1  UNL1        0.0380
     22 N          -5.4401   -3.1514    0.1494 N.ar    1  UNL1       -0.2604
     23 C          -6.5270   -2.3382    0.0676 C.ar    1  UNL1        0.0557
     24 C          -6.3094   -0.9499    0.0077 C.ar    1  UNL1        0.1185
     25 N          -7.2608   -0.0062   -0.0753 N.ar    1  UNL1       -0.1892
     26 S          -6.4738    1.4499   -0.1165 S.2     1  UNL1        0.1165
     27 N          -4.8990    0.9487   -0.0312 N.ar    1  UNL1       -0.1900
     28 C          -4.8987   -0.3969    0.0349 C.ar    1  UNL1        0.1110
     29 H           5.5679    0.3647   -0.5030 H       1  UNL1        0.0356
     30 H           5.4991    0.4535    1.2937 H       1  UNL1        0.0356
     31 H           6.8278   -1.7846    0.5533 H       1  UNL1        0.0576
     32 H           4.8974   -3.5772    0.5680 H       1  UNL1        0.0635
     33 H           1.8818   -3.0183    0.4250 H       1  UNL1        0.1659
     34 H          -2.4984    1.3840    0.0391 H       1  UNL1        0.0635
     35 H          -1.0516    3.2005    0.0051 H       1  UNL1        0.0624
     36 H           0.4955    5.0969   -0.0293 H       1  UNL1        0.0618
     37 H           2.9423    4.7378    0.0822 H       1  UNL1        0.0618
     38 H           3.8652    2.4665    0.2299 H       1  UNL1        0.0624
     39 H          -3.4179   -3.4074    0.2399 H       1  UNL1        0.0836
     40 H          -7.5060   -2.7981    0.0525 H       1  UNL1        0.0852
@<TRIPOS>BOND
     1     1     2    1
     2     2     3    2
     3     3     4    1
     4     4     5   ar
     5     5     6   ar
     6     6     7   ar
     7     7     8   ar
     8     8     9   ar
     9     9    10   ar
    10    10    11   ar
    11    11    12   ar
    12    12    13   ar
    13    13    14   ar
    14    14    15   ar
    15    15    16   ar
    16    16    17   ar
    17    17    18   ar
    18    18    19   ar
    19     9    20    1
    20    20    21   ar
    21    21    22   ar
    22    22    23   ar
    23    23    24   ar
    24    24    25   ar
    25    25    26   ar
    26    26    27   ar
    27    27    28   ar
    28    19     1    1
    29    28    20   ar
    30    19     4   ar
    31    28    24   ar
    32    18     6   ar
    33    11     7   ar
    34    17    12   ar
    35     1    29    1
    36     1    30    1
    37     2    31    1
    38     3    32    1
    39     5    33    1
    40    10    34    1
    41    13    35    1
    42    14    36    1
    43    15    37    1
    44    16    38    1
    45    21    39    1
    46    23    40    1
