@<TRIPOS>MOLECULE
*****
 39 45 0 0 0
SMALL
GASTEIGER

@<TRIPOS>ATOM
      1 C          -5.5147   -0.0134   -1.1670 C.3     1  UNL1        0.0000
      2 C          -5.5859    0.1129   -2.7124 C.2     1  UNL1        0.0000
      3 C          -4.3616    0.2207   -3.2877 C.2     1  UNL1        0.0000
      4 C          -3.4619    0.1748   -2.2183 C.ar    1  UNL1        0.0000
      5 N          -2.1072    0.2331   -2.1260 N.ar    1  UNL1        0.0000
      6 C          -1.8136    0.1347   -0.7828 C.ar    1  UNL1        0.0000
      7 C          -0.4560    0.1378   -0.0302 C.ar    1  UNL1        0.0000
      8 S           1.0976    0.2670   -0.6636 S.2     1  UNL1        0.0000
      9 C           1.8359    0.1708    0.9097 C.ar    1  UNL1        0.0000
     10 C           0.8599    0.0399    1.8996 C.ar    1  UNL1        0.0000
     11 C          -0.4223    0.0249    1.3339 C.ar    1  UNL1        0.0000
     12 C          -1.6875   -0.0916    1.9859 C.ar    1  UNL1        0.0000
     13 C          -1.9577   -0.2165    3.3182 C.ar    1  UNL1        0.0000
     14 O          -3.3253   -0.2967    3.4810 O.2     1  UNL1        0.0000
     15 C          -3.9032   -0.2200    2.2309 C.ar    1  UNL1        0.0000
     16 C          -2.9076   -0.0941    1.3084 C.ar    1  UNL1        0.0000
     17 C          -3.0080    0.0187   -0.0942 C.ar    1  UNL1        0.0000
     18 C          -4.0523    0.0426   -0.9853 C.ar    1  UNL1        0.0000
     19 C           3.2776    0.2258    1.0981 C.ar    1  UNL1        0.0000
     20 S           3.9562    0.1289    2.7071 S.2     1  UNL1        0.0000
     21 C           5.5804    0.2521    2.1627 C.ar    1  UNL1        0.0000
     22 C           5.6225    0.3640    0.8025 C.ar    1  UNL1        0.0000
     23 C           6.7525    0.4894   -0.0672 C.2     1  UNL1        0.0000
     24 C           6.4526    0.5807   -1.3795 C.2     1  UNL1        0.0000
     25 SI          4.5694    0.5112   -1.6575 Si      1  UNL1        0.0000
     26 C           4.3212    0.3480    0.2149 C.ar    1  UNL1        0.0000
     27 H          -5.9394   -0.9657   -0.8388 H       1  UNL1        0.0000
     28 H          -6.0266    0.8257   -0.6884 H       1  UNL1        0.0000
     29 H          -6.5224    0.1124   -3.2511 H       1  UNL1        0.0000
     30 H          -4.1324    0.3200   -4.3376 H       1  UNL1        0.0000
     31 H          -1.4391    0.3288   -2.8791 H       1  UNL1        0.0000
     32 H           1.0749   -0.0386    2.9573 H       1  UNL1        0.0000
     33 H          -1.3768   -0.2645    4.2277 H       1  UNL1        0.0000
     34 H          -4.9817   -0.2706    2.2084 H       1  UNL1        0.0000
     35 H           6.3979    0.2348    2.8697 H       1  UNL1        0.0000
     36 H           7.7685    0.5085    0.3106 H       1  UNL1        0.0000
     37 H           7.1365    0.6809   -2.2066 H       1  UNL1        0.0000
     38 H           4.2008   -0.7033   -2.4275 H       1  UNL1        0.0000
     39 H           4.0791    1.7917   -2.2262 H       1  UNL1        0.0000
@<TRIPOS>BOND
     1     1     2    1
     2     2     3    2
     3     3     4    1
     4     4     5   ar
     5     5     6   ar
     6     6     7   ar
     7     7     8   ar
     8     8     9   ar
     9     9    10   ar
    10    10    11   ar
    11    11    12   ar
    12    12    13   ar
    13    13    14   ar
    14    14    15   ar
    15    15    16   ar
    16    16    17   ar
    17    17    18   ar
    18     9    19    1
    19    19    20   ar
    20    20    21   ar
    21    21    22   ar
    22    22    23    1
    23    23    24    2
    24    24    25    1
    25    25    26    1
    26    18     1    1
    27    26    19   ar
    28    18     4   ar
    29    26    22   ar
    30    17     6   ar
    31    11     7   ar
    32    16    12   ar
    33     1    27    1
    34     1    28    1
    35     2    29    1
    36     3    30    1
    37     5    31    1
    38    10    32    1
    39    13    33    1
    40    15    34    1
    41    21    35    1
    42    23    36    1
    43    24    37    1
    44    25    38    1
    45    25    39    1
