@<TRIPOS>MOLECULE
*****
 37 41 0 0 0
SMALL
GASTEIGER

@<TRIPOS>ATOM
      1 C           4.8648   -0.1915   -0.5451 C.3     1  UNL1        0.0000
      2 C           5.6876    0.1072    0.6948 C.2     1  UNL1        0.0000
      3 C           4.8897    0.4388    1.7278 C.2     1  UNL1        0.0000
      4 C           3.5392    0.3876    1.2717 C.2     1  UNL1        0.0000
      5 C           3.4874    0.0301   -0.0234 C.2     1  UNL1        0.0000
      6 C           2.1784   -0.0617   -0.6144 C.2     1  UNL1        0.0000
      7 C           1.1868    0.2308    0.2584 C.2     1  UNL1        0.0000
      8 SI          1.8959    0.6805    2.0043 Si      1  UNL1        0.0000
      9 C          -0.2544    0.2496    0.0076 C.ar    1  UNL1        0.0000
     10 C          -0.7984    1.4675   -0.4244 C.ar    1  UNL1        0.0000
     11 C          -2.1595    1.5493   -0.6768 C.ar    1  UNL1        0.0000
     12 SI         -3.1342    3.0470   -1.2513 Si      1  UNL1        0.0000
     13 C          -4.6684    1.9851   -1.2172 C.2     1  UNL1        0.0000
     14 C          -4.4254    0.7196   -0.8313 C.2     1  UNL1        0.0000
     15 C          -3.0056    0.4247   -0.5138 C.ar    1  UNL1        0.0000
     16 C          -2.4760   -0.8170   -0.0941 C.ar    1  UNL1        0.0000
     17 C          -3.2734   -1.9735    0.0773 C.ar    1  UNL1        0.0000
     18 C          -2.7277   -3.1904    0.4855 C.ar    1  UNL1        0.0000
     19 C          -1.3682   -3.2845    0.7313 C.ar    1  UNL1        0.0000
     20 C          -0.5577   -2.1603    0.5718 C.ar    1  UNL1        0.0000
     21 C          -1.0777   -0.9075    0.1646 C.ar    1  UNL1        0.0000
     22 H           5.0155   -1.2237   -0.8742 H       1  UNL1        0.0000
     23 H           5.1116    0.5025   -1.3538 H       1  UNL1        0.0000
     24 H           6.7657    0.0561    0.7280 H       1  UNL1        0.0000
     25 H           5.2107    0.6977    2.7253 H       1  UNL1        0.0000
     26 H           2.0268   -0.3377   -1.6493 H       1  UNL1        0.0000
     27 H           1.5092   -0.3245    3.0283 H       1  UNL1        0.0000
     28 H           1.6324    2.1030    2.3462 H       1  UNL1        0.0000
     29 H          -0.1586    2.3372   -0.5589 H       1  UNL1        0.0000
     30 H          -2.7754    3.4771   -2.6258 H       1  UNL1        0.0000
     31 H          -3.1751    4.1304   -0.2376 H       1  UNL1        0.0000
     32 H          -5.6307    2.3911   -1.4888 H       1  UNL1        0.0000
     33 H          -5.1993   -0.0307   -0.7559 H       1  UNL1        0.0000
     34 H          -4.3433   -1.9429   -0.1089 H       1  UNL1        0.0000
     35 H          -3.3672   -4.0605    0.6067 H       1  UNL1        0.0000
     36 H          -0.9317   -4.2287    1.0455 H       1  UNL1        0.0000
     37 H           0.5062   -2.2777    0.7681 H       1  UNL1        0.0000
@<TRIPOS>BOND
     1     1     2    1
     2     2     3    2
     3     3     4    1
     4     4     5    2
     5     5     6    1
     6     6     7    2
     7     7     8    1
     8     7     9    1
     9     9    10   ar
    10    10    11   ar
    11    11    12    1
    12    12    13    1
    13    13    14    2
    14    14    15    1
    15    15    16   ar
    16    16    17   ar
    17    17    18   ar
    18    18    19   ar
    19    19    20   ar
    20    20    21   ar
    21     5     1    1
    22    21     9   ar
    23     8     4    1
    24    15    11   ar
    25    21    16   ar
    26     1    22    1
    27     1    23    1
    28     2    24    1
    29     3    25    1
    30     6    26    1
    31     8    27    1
    32     8    28    1
    33    10    29    1
    34    12    30    1
    35    12    31    1
    36    13    32    1
    37    14    33    1
    38    17    34    1
    39    18    35    1
    40    19    36    1
    41    20    37    1
