@<TRIPOS>MOLECULE
*****
 32 36 0 0 0
SMALL
GASTEIGER

@<TRIPOS>ATOM
      1 C          -4.5661    0.1079   -1.9287 C.3     1  UNL1        0.0000
      2 C          -5.7358   -0.0409   -0.9731 C.2     1  UNL1        0.0000
      3 C          -5.3015   -0.1822    0.2938 C.2     1  UNL1        0.0000
      4 C          -3.8762   -0.1397    0.2742 C.2     1  UNL1        0.0000
      5 C          -3.4210    0.0251   -0.9795 C.2     1  UNL1        0.0000
      6 C          -1.9905    0.0846   -1.1392 C.2     1  UNL1        0.0000
      7 C          -1.3241   -0.0389    0.0317 C.2     1  UNL1        0.0000
      8 SI         -2.5388   -0.2519    1.5080 Si      1  UNL1        0.0000
      9 C           0.0797   -0.0217    0.2114 C.ar    1  UNL1        0.0000
     10 C           1.0957    0.1255   -0.7425 C.ar    1  UNL1        0.0000
     11 C           2.2829    0.0703   -0.0301 C.ar    1  UNL1        0.0000
     12 C           2.0356   -0.1032    1.3090 C.ar    1  UNL1        0.0000
     13 C           3.0153   -0.2020    2.3241 C.ar    1  UNL1        0.0000
     14 C           4.3890   -0.1215    1.9860 C.ar    1  UNL1        0.0000
     15 C           4.5939    0.0543    0.6190 C.ar    1  UNL1        0.0000
     16 C           5.8024    0.1682   -0.0247 C.ar    1  UNL1        0.0000
     17 O           5.6051    0.3310   -1.3780 O.2     1  UNL1        0.0000
     18 C           4.2485    0.3216   -1.6075 C.ar    1  UNL1        0.0000
     19 C           3.6405    0.1551   -0.4059 C.ar    1  UNL1        0.0000
     20 O           0.6810   -0.1601    1.4616 O.2     1  UNL1        0.0000
     21 H          -4.6018    1.0730   -2.4421 H       1  UNL1        0.0000
     22 H          -4.5516   -0.7073   -2.6578 H       1  UNL1        0.0000
     23 H          -6.7705   -0.0327   -1.2823 H       1  UNL1        0.0000
     24 H          -5.9183   -0.3059    1.1709 H       1  UNL1        0.0000
     25 H          -1.5380    0.2151   -2.1123 H       1  UNL1        0.0000
     26 H          -2.5091    0.9044    2.4426 H       1  UNL1        0.0000
     27 H          -2.4393   -1.5944    2.1397 H       1  UNL1        0.0000
     28 H           0.9541    0.2537   -1.8055 H       1  UNL1        0.0000
     29 H           2.7088   -0.3390    3.3567 H       1  UNL1        0.0000
     30 H           5.1753   -0.1916    2.7262 H       1  UNL1        0.0000
     31 H           6.8366    0.1581    0.2895 H       1  UNL1        0.0000
     32 H           3.9384    0.4408   -2.6351 H       1  UNL1        0.0000
@<TRIPOS>BOND
     1     1     2    1
     2     2     3    2
     3     3     4    1
     4     4     5    2
     5     5     6    1
     6     6     7    2
     7     7     8    1
     8     7     9    1
     9     9    10   ar
    10    10    11   ar
    11    11    12   ar
    12    12    13   ar
    13    13    14   ar
    14    14    15   ar
    15    15    16   ar
    16    16    17   ar
    17    17    18   ar
    18    18    19   ar
    19    12    20   ar
    20     5     1    1
    21    20     9   ar
    22     8     4    1
    23    19    11   ar
    24    19    15   ar
    25     1    21    1
    26     1    22    1
    27     2    23    1
    28     3    24    1
    29     6    25    1
    30     8    26    1
    31     8    27    1
    32    10    28    1
    33    13    29    1
    34    14    30    1
    35    16    31    1
    36    18    32    1
