@<TRIPOS>MOLECULE
*****
 29 32 0 0 0
SMALL
GASTEIGER

@<TRIPOS>ATOM
      1 C           3.8455    1.8916   -0.0890 C.3     1  UNL1        0.0000
      2 C           5.0543    0.9803    0.0102 C.2     1  UNL1        0.0000
      3 C           4.6722   -0.3040    0.1440 C.2     1  UNL1        0.0000
      4 C           3.2463   -0.3388    0.1435 C.2     1  UNL1        0.0000
      5 C           2.7392    0.8981    0.0122 C.2     1  UNL1        0.0000
      6 C           1.3026    1.0146   -0.0039 C.2     1  UNL1        0.0000
      7 C           0.6605   -0.1721    0.1189 C.2     1  UNL1        0.0000
      8 SI          1.9683   -1.6256    0.2751 Si      1  UNL1        0.0000
      9 C          -0.7350   -0.4072    0.1400 C.ar    1  UNL1        0.0000
     10 C          -1.5150   -1.5471    0.2618 C.ar    1  UNL1        0.0000
     11 C          -2.8756   -1.1647    0.2157 C.ar    1  UNL1        0.0000
     12 N          -3.9849   -1.9382    0.2966 N.ar    1  UNL1        0.0000
     13 C          -5.1492   -1.2590    0.2188 C.ar    1  UNL1        0.0000
     14 C          -5.2757    0.1162    0.0684 C.ar    1  UNL1        0.0000
     15 C          -4.1291    0.9024   -0.0137 C.ar    1  UNL1        0.0000
     16 C          -2.9181    0.2154    0.0650 C.ar    1  UNL1        0.0000
     17 N          -1.6151    0.6505    0.0217 N.ar    1  UNL1        0.0000
     18 H           3.8326    2.4203   -1.0465 H       1  UNL1        0.0000
     19 H           3.8275    2.6077    0.7377 H       1  UNL1        0.0000
     20 H           6.0759    1.3287   -0.0234 H       1  UNL1        0.0000
     21 H           5.3254   -1.1585    0.2356 H       1  UNL1        0.0000
     22 H           0.8395    1.9851   -0.1067 H       1  UNL1        0.0000
     23 H           1.9031   -2.5393   -0.8956 H       1  UNL1        0.0000
     24 H           1.8961   -2.2762    1.6097 H       1  UNL1        0.0000
     25 H          -1.1639   -2.5631    0.3739 H       1  UNL1        0.0000
     26 H          -6.0374   -1.8831    0.2841 H       1  UNL1        0.0000
     27 H          -6.2599    0.5697    0.0158 H       1  UNL1        0.0000
     28 H          -4.1799    1.9782   -0.1312 H       1  UNL1        0.0000
     29 H          -1.3500    1.6180   -0.0834 H       1  UNL1        0.0000
@<TRIPOS>BOND
     1     1     2    1
     2     2     3    2
     3     3     4    1
     4     4     5    2
     5     5     6    1
     6     6     7    2
     7     7     8    1
     8     7     9    1
     9     9    10   ar
    10    10    11   ar
    11    11    12   ar
    12    12    13   ar
    13    13    14   ar
    14    14    15   ar
    15    15    16   ar
    16    16    17   ar
    17     5     1    1
    18    17     9   ar
    19     8     4    1
    20    16    11   ar
    21     1    18    1
    22     1    19    1
    23     2    20    1
    24     3    21    1
    25     6    22    1
    26     8    23    1
    27     8    24    1
    28    10    25    1
    29    13    26    1
    30    14    27    1
    31    15    28    1
    32    17    29    1
