@<TRIPOS>MOLECULE
*****
 30 33 0 0 0
SMALL
GASTEIGER

@<TRIPOS>ATOM
      1 C          -4.3379    1.1886   -0.1841 C.3     1  UNL1        0.0000
      2 C          -5.1334    0.2311    0.6890 C.2     1  UNL1        0.0000
      3 C          -4.3177   -0.6671    1.2754 C.2     1  UNL1        0.0000
      4 C          -2.9875   -0.3838    0.8540 C.2     1  UNL1        0.0000
      5 C          -2.9685    0.6634    0.0258 C.2     1  UNL1        0.0000
      6 C          -1.6380    0.9468   -0.3953 C.2     1  UNL1        0.0000
      7 C          -0.8012    0.0544    0.1838 C.2     1  UNL1        0.0000
      8 C          -1.6172   -0.9071    1.0627 C.3     1  UNL1        0.0000
      9 C           0.6319   -0.0062    0.0189 C.2     1  UNL1        0.0000
     10 C           1.4050    0.8088   -0.7341 C.2     1  UNL1        0.0000
     11 C           2.8433    0.5006   -0.7052 C.ar    1  UNL1        0.0000
     12 C           3.8376    1.1804   -1.3850 C.ar    1  UNL1        0.0000
     13 N           5.1478    0.8413   -1.3126 N.ar    1  UNL1        0.0000
     14 C           5.4682   -0.2192   -0.5287 C.ar    1  UNL1        0.0000
     15 C           4.5493   -0.9680    0.1940 C.ar    1  UNL1        0.0000
     16 C           3.2165   -0.5941    0.0978 C.ar    1  UNL1        0.0000
     17 SI          1.7024   -1.3305    0.8987 Si      1  UNL1        0.0000
     18 H          -4.4419    2.2180    0.1702 H       1  UNL1        0.0000
     19 H          -4.6503    1.1149   -1.2296 H       1  UNL1        0.0000
     20 H          -6.2051    0.2777    0.8119 H       1  UNL1        0.0000
     21 H          -4.6070   -1.4616    1.9447 H       1  UNL1        0.0000
     22 H          -1.3778    1.7495   -1.0666 H       1  UNL1        0.0000
     23 H          -1.5326   -1.9404    0.7115 H       1  UNL1        0.0000
     24 H          -1.3239   -0.8346    2.1148 H       1  UNL1        0.0000
     25 H           1.0399    1.6361   -1.3284 H       1  UNL1        0.0000
     26 H           3.6158    2.0321   -2.0198 H       1  UNL1        0.0000
     27 H           6.5279   -0.4590   -0.4972 H       1  UNL1        0.0000
     28 H           4.8763   -1.8041    0.8012 H       1  UNL1        0.0000
     29 H           1.6838   -1.1668    2.3749 H       1  UNL1        0.0000
     30 H           1.3945   -2.7014    0.4169 H       1  UNL1        0.0000
@<TRIPOS>BOND
     1     1     2    1
     2     2     3    2
     3     3     4    1
     4     4     5    2
     5     5     6    1
     6     6     7    2
     7     7     8    1
     8     7     9    1
     9     9    10    2
    10    10    11    1
    11    11    12   ar
    12    12    13   ar
    13    13    14   ar
    14    14    15   ar
    15    15    16   ar
    16    16    17    1
    17     5     1    1
    18    17     9    1
    19     8     4    1
    20    16    11   ar
    21     1    18    1
    22     1    19    1
    23     2    20    1
    24     3    21    1
    25     6    22    1
    26     8    23    1
    27     8    24    1
    28    10    25    1
    29    12    26    1
    30    14    27    1
    31    15    28    1
    32    17    29    1
    33    17    30    1
