@<TRIPOS>MOLECULE
*****
 37 42 0 0 0
SMALL
GASTEIGER

@<TRIPOS>ATOM
      1 C          -4.9046    2.0037    0.7654 C.3     1  UNL1        0.0000
      2 C          -6.2486    1.2991    0.7969 C.2     1  UNL1        0.0000
      3 C          -6.0924   -0.0328    0.6782 C.2     1  UNL1        0.0000
      4 C          -4.6939   -0.2980    0.5640 C.2     1  UNL1        0.0000
      5 C          -3.9756    0.8495    0.6099 C.2     1  UNL1        0.0000
      6 C          -2.6045    0.5602    0.4967 C.ar    1  UNL1        0.0000
      7 N          -1.5301    1.4105    0.4986 N.ar    1  UNL1        0.0000
      8 C          -0.4429    0.6034    0.3614 C.ar    1  UNL1        0.0000
      9 C           0.9336    0.8459    0.2933 C.2     1  UNL1        0.0000
     10 C           1.5159   -0.3787    0.1497 C.2     1  UNL1        0.0000
     11 C           0.4418   -1.5236    0.1390 C.3     1  UNL1        0.0000
     12 C          -0.7919   -0.7225    0.2772 C.ar    1  UNL1        0.0000
     13 C          -2.1608   -0.7510    0.3614 C.ar    1  UNL1        0.0000
     14 SI         -3.6788   -1.8531    0.3721 Si      1  UNL1        0.0000
     15 C           2.9325   -0.5164    0.0530 C.ar    1  UNL1        0.0000
     16 S           3.7110   -1.8286    0.9024 S.2     1  UNL1        0.0000
     17 C           5.2905   -1.3752    0.3910 C.ar    1  UNL1        0.0000
     18 C           5.2068   -0.2829   -0.4126 C.ar    1  UNL1        0.0000
     19 SI          6.4267    0.7813   -1.3715 Si      1  UNL1        0.0000
     20 C           4.9440    1.8056   -2.0018 C.2     1  UNL1        0.0000
     21 C           3.7761    1.3418   -1.5050 C.2     1  UNL1        0.0000
     22 C           3.8898    0.2107   -0.6262 C.ar    1  UNL1        0.0000
     23 H          -4.7260    2.5448    1.6991 H       1  UNL1        0.0000
     24 H          -4.8440    2.6901   -0.0841 H       1  UNL1        0.0000
     25 H          -7.1938    1.8107    0.9014 H       1  UNL1        0.0000
     26 H          -6.8787   -0.7719    0.6704 H       1  UNL1        0.0000
     27 H          -1.5454    2.4179    0.5854 H       1  UNL1        0.0000
     28 H           1.4172    1.8083    0.3604 H       1  UNL1        0.0000
     29 H           0.5793   -2.2024    0.9855 H       1  UNL1        0.0000
     30 H           0.4727   -2.0706   -0.8078 H       1  UNL1        0.0000
     31 H          -3.7715   -2.7410    1.5610 H       1  UNL1        0.0000
     32 H          -3.9336   -2.5400   -0.9218 H       1  UNL1        0.0000
     33 H           6.1568   -1.9415    0.7046 H       1  UNL1        0.0000
     34 H           7.1002    0.0747   -2.4894 H       1  UNL1        0.0000
     35 H           7.3164    1.6049   -0.5155 H       1  UNL1        0.0000
     36 H           5.0881    2.6308   -2.6802 H       1  UNL1        0.0000
     37 H           2.8176    1.7770   -1.7621 H       1  UNL1        0.0000
@<TRIPOS>BOND
     1     1     2    1
     2     2     3    2
     3     3     4    1
     4     4     5    2
     5     5     6    1
     6     6     7   ar
     7     7     8   ar
     8     8     9    1
     9     9    10    2
    10    10    11    1
    11    11    12    1
    12    12    13   ar
    13    13    14    1
    14    10    15    1
    15    15    16   ar
    16    16    17   ar
    17    17    18   ar
    18    18    19    1
    19    19    20    1
    20    20    21    2
    21    21    22    1
    22     5     1    1
    23    13     6   ar
    24    22    15   ar
    25    14     4    1
    26    22    18   ar
    27    12     8   ar
    28     1    23    1
    29     1    24    1
    30     2    25    1
    31     3    26    1
    32     7    27    1
    33     9    28    1
    34    11    29    1
    35    11    30    1
    36    14    31    1
    37    14    32    1
    38    17    33    1
    39    19    34    1
    40    19    35    1
    41    20    36    1
    42    21    37    1
