@<TRIPOS>MOLECULE
*****
 39 45 0 0 0
SMALL
GASTEIGER

@<TRIPOS>ATOM
      1 C          -3.7443    1.1131    2.1992 C.3     1  UNL1       -0.0066
      2 C          -5.1853    0.9192    1.7667 C.2     1  UNL1       -0.0790
      3 C          -5.3063    0.3503    0.5544 C.2     1  UNL1       -0.0572
      4 C          -3.9643    0.1231    0.0813 C.ar    1  UNL1       -0.0091
      5 C          -3.0035    0.5521    1.0099 C.ar    1  UNL1       -0.0119
      6 C          -1.6268    0.4006    0.7494 C.ar    1  UNL1        0.0523
      7 N          -0.5268    0.6846    1.5318 N.ar    1  UNL1       -0.3538
      8 C           0.6501    0.3711    0.8744 C.ar    1  UNL1        0.0487
      9 C           1.9853    0.4658    1.3316 C.ar    1  UNL1       -0.0289
     10 C           3.0607    0.1315    0.4837 C.ar    1  UNL1        0.0004
     11 C           4.4453    0.1758    0.9184 C.ar    1  UNL1        0.0394
     12 C           5.3751   -0.8416    1.0293 C.ar    1  UNL1        0.0425
     13 N           6.6308   -0.4689    1.4709 N.ar    1  UNL1       -0.2551
     14 C           6.6387    0.8260    1.6966 C.ar    1  UNL1        0.0652
     15 S           5.1684    1.6571    1.4013 S.2     1  UNL1       -0.0754
     16 C           2.6723   -0.2215   -0.8199 C.ar    1  UNL1       -0.0019
     17 C           3.5697   -0.4828   -1.8371 C.ar    1  UNL1       -0.0160
     18 S           2.7904   -0.7747   -3.3450 S.2     1  UNL1       -0.1038
     19 C           1.2298   -0.5346   -2.6622 C.ar    1  UNL1       -0.0159
     20 C           1.3384   -0.3164   -1.3210 C.ar    1  UNL1       -0.0005
     21 C           0.2712   -0.0660   -0.3933 C.ar    1  UNL1        0.0163
     22 C          -1.1153   -0.1371   -0.4393 C.ar    1  UNL1        0.0190
     23 C          -2.0878   -0.6514   -1.3715 C.ar    1  UNL1        0.0302
     24 C          -2.0074   -1.3885   -2.5127 C.ar    1  UNL1        0.1001
     25 O          -3.2829   -1.6232   -2.9686 O.2     1  UNL1       -0.4698
     26 C          -4.1540   -1.0608   -2.0718 C.ar    1  UNL1        0.1000
     27 C          -3.4530   -0.4738   -1.0495 C.ar    1  UNL1        0.0280
     28 H          -3.5152    2.1727    2.3418 H       1  UNL1        0.0356
     29 H          -3.5255    0.5414    3.1053 H       1  UNL1        0.0356
     30 H          -6.0220    1.2123    2.3858 H       1  UNL1        0.0575
     31 H          -6.2127    0.1039    0.0275 H       1  UNL1        0.0621
     32 H          -0.5740    1.0567    2.4690 H       1  UNL1        0.1659
     33 H           2.1832    0.7897    2.3516 H       1  UNL1        0.0645
     34 H           5.1874   -1.8836    0.7973 H       1  UNL1        0.0841
     35 H           7.5200    1.3449    2.0504 H       1  UNL1        0.0907
     36 H           4.6508   -0.4933   -1.8097 H       1  UNL1        0.0700
     37 H           0.3738   -0.5311   -3.3128 H       1  UNL1        0.0700
     38 H          -1.2326   -1.8476   -3.1042 H       1  UNL1        0.1036
     39 H          -5.2019   -1.1948   -2.2991 H       1  UNL1        0.1036
@<TRIPOS>BOND
     1     1     2    1
     2     2     3    2
     3     3     4    1
     4     4     5   ar
     5     5     6   ar
     6     6     7   ar
     7     7     8   ar
     8     8     9   ar
     9     9    10   ar
    10    10    11    1
    11    11    12   ar
    12    12    13   ar
    13    13    14   ar
    14    14    15   ar
    15    10    16   ar
    16    16    17   ar
    17    17    18   ar
    18    18    19   ar
    19    19    20   ar
    20    20    21   ar
    21    21    22   ar
    22    22    23   ar
    23    23    24   ar
    24    24    25   ar
    25    25    26   ar
    26    26    27   ar
    27     5     1    1
    28    22     6   ar
    29    27    23   ar
    30    27     4   ar
    31    21     8   ar
    32    15    11   ar
    33    20    16   ar
    34     1    28    1
    35     1    29    1
    36     2    30    1
    37     3    31    1
    38     7    32    1
    39     9    33    1
    40    12    34    1
    41    14    35    1
    42    17    36    1
    43    19    37    1
    44    24    38    1
    45    26    39    1
