@<TRIPOS>MOLECULE
*****
 46 53 0 0 0
SMALL
GASTEIGER

@<TRIPOS>ATOM
      1 C          -4.6237    1.1978   -2.2235 C.3     1  UNL1        0.0000
      2 C          -6.0575    1.1374   -1.7328 C.2     1  UNL1        0.0000
      3 C          -6.1785    0.5833   -0.5138 C.2     1  UNL1        0.0000
      4 C          -4.8448    0.2292   -0.0960 C.ar    1  UNL1        0.0000
      5 C          -3.8893    0.5701   -1.0649 C.ar    1  UNL1        0.0000
      6 C          -2.5208    0.3195   -0.8479 C.ar    1  UNL1        0.0000
      7 N          -1.4212    0.6013   -1.6326 N.ar    1  UNL1        0.0000
      8 C          -0.2525    0.1641   -1.0352 C.ar    1  UNL1        0.0000
      9 C           1.0888    0.2632   -1.4940 C.ar    1  UNL1        0.0000
     10 C           2.1508   -0.2878   -0.7475 C.ar    1  UNL1        0.0000
     11 C           3.5453   -0.2116   -1.1433 C.ar    1  UNL1        0.0000
     12 S           4.0624   -1.0229   -2.5859 S.2     1  UNL1        0.0000
     13 C           5.7053   -0.5294   -2.3946 C.ar    1  UNL1        0.0000
     14 C           5.8207    0.2292   -1.2714 C.ar    1  UNL1        0.0000
     15 SI          7.2104    1.1325   -0.3791 Si      1  UNL1        0.0000
     16 C           5.9264    1.7000    0.9200 C.2     1  UNL1        0.0000
     17 C           4.6925    1.2298    0.6330 C.2     1  UNL1        0.0000
     18 C           4.6112    0.4244   -0.5513 C.ar    1  UNL1        0.0000
     19 C           1.7184   -0.9354    0.4103 C.ar    1  UNL1        0.0000
     20 C           2.4961   -1.6396    1.3015 C.ar    1  UNL1        0.0000
     21 O           1.7159   -2.1929    2.2810 O.2     1  UNL1        0.0000
     22 C           0.4153   -1.8453    2.0148 C.ar    1  UNL1        0.0000
     23 C           0.4017   -1.0604    0.9051 C.ar    1  UNL1        0.0000
     24 C          -0.6470   -0.4408    0.1598 C.ar    1  UNL1        0.0000
     25 C          -2.0182   -0.2949    0.3073 C.ar    1  UNL1        0.0000
     26 C          -2.9790   -0.6053    1.3393 C.ar    1  UNL1        0.0000
     27 C          -2.8576   -1.0686    2.6152 C.ar    1  UNL1        0.0000
     28 N          -4.1463   -1.1429    3.1147 N.ar    1  UNL1        0.0000
     29 C          -5.0534   -0.6888    2.1774 C.ar    1  UNL1        0.0000
     30 C          -4.3390   -0.3279    1.0601 C.ar    1  UNL1        0.0000
     31 H          -4.3046    2.2322   -2.3785 H       1  UNL1        0.0000
     32 H          -4.4952    0.6097   -3.1364 H       1  UNL1        0.0000
     33 H          -6.8884    1.5088   -2.3161 H       1  UNL1        0.0000
     34 H          -7.0773    0.4252    0.0574 H       1  UNL1        0.0000
     35 H          -1.4637    1.0647   -2.5281 H       1  UNL1        0.0000
     36 H           1.3007    0.7713   -2.4326 H       1  UNL1        0.0000
     37 H           6.4573   -0.8262   -3.1130 H       1  UNL1        0.0000
     38 H           7.7574    2.2908   -1.1285 H       1  UNL1        0.0000
     39 H           8.2222    0.2339    0.2301 H       1  UNL1        0.0000
     40 H           6.2167    2.3203    1.7526 H       1  UNL1        0.0000
     41 H           3.8220    1.4419    1.2442 H       1  UNL1        0.0000
     42 H           3.5521   -1.8592    1.3776 H       1  UNL1        0.0000
     43 H          -0.3067   -2.2728    2.6874 H       1  UNL1        0.0000
     44 H          -2.0300   -1.3238    3.2526 H       1  UNL1        0.0000
     45 H          -4.3863   -1.4531    4.0472 H       1  UNL1        0.0000
     46 H          -6.1089   -0.6510    2.4087 H       1  UNL1        0.0000
@<TRIPOS>BOND
     1     1     2    1
     2     2     3    2
     3     3     4    1
     4     4     5   ar
     5     5     6   ar
     6     6     7   ar
     7     7     8   ar
     8     8     9   ar
     9     9    10   ar
    10    10    11    1
    11    11    12   ar
    12    12    13   ar
    13    13    14   ar
    14    14    15    1
    15    15    16    1
    16    16    17    2
    17    17    18    1
    18    10    19   ar
    19    19    20   ar
    20    20    21   ar
    21    21    22   ar
    22    22    23   ar
    23    23    24   ar
    24    24    25   ar
    25    25    26   ar
    26    26    27   ar
    27    27    28   ar
    28    28    29   ar
    29    29    30   ar
    30     5     1    1
    31    25     6   ar
    32    30    26   ar
    33    30     4   ar
    34    24     8   ar
    35    18    11   ar
    36    23    19   ar
    37    18    14   ar
    38     1    31    1
    39     1    32    1
    40     2    33    1
    41     3    34    1
    42     7    35    1
    43     9    36    1
    44    13    37    1
    45    15    38    1
    46    15    39    1
    47    16    40    1
    48    17    41    1
    49    20    42    1
    50    22    43    1
    51    27    44    1
    52    28    45    1
    53    29    46    1
