@<TRIPOS>MOLECULE
*****
 34 39 0 0 0
SMALL
GASTEIGER

@<TRIPOS>ATOM
      1 SI          0.3291   -2.3852   -2.7169 Si      1  UNL1        0.0000
      2 C          -0.7191   -1.0809   -1.8791 C.2     1  UNL1        0.0000
      3 C          -0.0071   -0.3771   -0.9729 C.ar    1  UNL1        0.0000
      4 C          -0.5353    0.7345   -0.1423 C.ar    1  UNL1        0.0000
      5 C           0.3052    1.3678    0.7158 C.ar    1  UNL1        0.0000
      6 C           1.6675    0.9420    0.7971 C.ar    1  UNL1        0.0000
      7 O           2.6179    1.4885    1.6233 O.2     1  UNL1        0.0000
      8 C           3.7658    0.7871    1.3821 C.ar    1  UNL1        0.0000
      9 C           5.0671    0.8785    1.9124 C.ar    1  UNL1        0.0000
     10 C           5.8561   -0.0830    1.3140 C.ar    1  UNL1        0.0000
     11 S           5.0269   -1.0564    0.1492 S.2     1  UNL1        0.0000
     12 C           3.5658   -0.1738    0.4437 C.ar    1  UNL1        0.0000
     13 C           2.2169   -0.0903    0.0543 C.ar    1  UNL1        0.0000
     14 C           1.4193   -0.8070   -0.8713 C.ar    1  UNL1        0.0000
     15 C           1.7764   -1.8209   -1.6799 C.2     1  UNL1        0.0000
     16 C          -1.8864    1.1807   -0.1582 C.ar    1  UNL1        0.0000
     17 S          -2.4204    2.6865   -0.8415 S.2     1  UNL1        0.0000
     18 C          -4.0927    2.3928   -0.4590 C.ar    1  UNL1        0.0000
     19 C          -4.1662    1.1931    0.1518 C.ar    1  UNL1        0.0000
     20 C          -5.1035    0.3017    0.7283 C.ar    1  UNL1        0.0000
     21 C          -4.3789   -0.8190    1.1895 C.ar    1  UNL1        0.0000
     22 N          -3.0145   -0.6891    0.9370 N.ar    1  UNL1        0.0000
     23 C          -2.9716    0.5288    0.3186 C.ar    1  UNL1        0.0000
     24 H           0.5250   -2.1143   -4.1605 H       1  UNL1        0.0000
     25 H          -0.1089   -3.7577   -2.3678 H       1  UNL1        0.0000
     26 H          -1.7572   -0.9519   -2.1447 H       1  UNL1        0.0000
     27 H          -0.0150    2.1828    1.3565 H       1  UNL1        0.0000
     28 H           5.3987    1.5824    2.6628 H       1  UNL1        0.0000
     29 H           6.9043   -0.2774    1.4979 H       1  UNL1        0.0000
     30 H           2.7472   -2.2805   -1.7711 H       1  UNL1        0.0000
     31 H          -4.8642    3.1062   -0.7089 H       1  UNL1        0.0000
     32 H          -6.1744    0.4311    0.8126 H       1  UNL1        0.0000
     33 H          -4.7354   -1.7119    1.6872 H       1  UNL1        0.0000
     34 H          -2.2383   -1.3082    1.1399 H       1  UNL1        0.0000
@<TRIPOS>BOND
     1     1     2    1
     2     2     3    2
     3     3     4   ar
     4     4     5   ar
     5     5     6   ar
     6     6     7   ar
     7     7     8   ar
     8     8     9   ar
     9     9    10   ar
    10    10    11   ar
    11    11    12   ar
    12    12    13   ar
    13    13    14   ar
    14    14    15    2
    15     4    16    1
    16    16    17   ar
    17    17    18   ar
    18    18    19   ar
    19    19    20   ar
    20    20    21   ar
    21    21    22   ar
    22    22    23   ar
    23    15     1    1
    24    23    16   ar
    25    14     3   ar
    26    23    19   ar
    27    13     6   ar
    28    12     8   ar
    29     1    24    1
    30     1    25    1
    31     2    26    1
    32     5    27    1
    33     9    28    1
    34    10    29    1
    35    15    30    1
    36    18    31    1
    37    20    32    1
    38    21    33    1
    39    22    34    1
