@<TRIPOS>MOLECULE
*****
 41 47 0 0 0
SMALL
GASTEIGER

@<TRIPOS>ATOM
      1 C           4.6340   -2.2149   -0.5821 C.3     1  UNL1       -0.0066
      2 C           6.0414   -1.7611   -0.2503 C.2     1  UNL1       -0.0790
      3 C           6.0978   -0.5110    0.2414 C.2     1  UNL1       -0.0573
      4 C           4.7389   -0.0198    0.2818 C.ar    1  UNL1       -0.0116
      5 C           3.8361   -0.9965   -0.1970 C.ar    1  UNL1       -0.0120
      6 C           2.4619   -0.7221   -0.2424 C.ar    1  UNL1        0.0527
      7 N           1.3674   -1.4478   -0.6459 N.ar    1  UNL1       -0.3534
      8 C           0.2266   -0.6776   -0.4720 C.ar    1  UNL1        0.0553
      9 C          -1.1684   -0.8342   -0.6854 C.ar    1  UNL1       -0.0229
     10 C          -1.8455    0.3139   -0.3146 C.ar    1  UNL1        0.0225
     11 S          -0.8071    1.5591    0.2732 S.2     1  UNL1       -0.0860
     12 C           0.5728    0.5491    0.0398 C.ar    1  UNL1        0.0458
     13 C           1.9632    0.4971    0.1752 C.ar    1  UNL1        0.0225
     14 C           2.8154    1.5314    0.6708 C.ar    1  UNL1       -0.0001
     15 C           2.4841    2.7753    1.1174 C.ar    1  UNL1       -0.0159
     16 S           3.9248    3.5984    1.5958 S.2     1  UNL1       -0.1038
     17 C           4.9335    2.2536    1.1853 C.ar    1  UNL1       -0.0160
     18 C           4.2014    1.1975    0.6946 C.ar    1  UNL1       -0.0027
     19 C          -3.2769    0.5660   -0.3711 C.ar    1  UNL1       -0.0021
     20 C          -3.8877    1.6402   -1.0682 C.ar    1  UNL1       -0.0529
     21 C          -5.3101    1.8571   -1.1300 C.ar    1  UNL1       -0.0605
     22 C          -6.2694    1.0278   -0.5046 C.ar    1  UNL1       -0.0526
     23 C          -5.6484   -0.0133    0.1730 C.ar    1  UNL1        0.0000
     24 C          -6.2823   -0.9888    0.8976 C.ar    1  UNL1        0.0094
     25 N          -5.2983   -1.8025    1.4179 N.ar    1  UNL1       -0.3659
     26 C          -4.0515   -1.3560    1.0293 C.ar    1  UNL1        0.0100
     27 C          -4.2398   -0.2443    0.2428 C.ar    1  UNL1        0.0076
     28 H           4.5319   -2.4324   -1.6489 H       1  UNL1        0.0356
     29 H           4.3474   -3.0809    0.0209 H       1  UNL1        0.0356
     30 H           6.9056   -2.3933   -0.4004 H       1  UNL1        0.0575
     31 H           6.9739    0.0343    0.5498 H       1  UNL1        0.0621
     32 H           1.3538   -2.3896   -1.0147 H       1  UNL1        0.1659
     33 H          -1.6490   -1.7185   -1.0842 H       1  UNL1        0.0650
     34 H           1.5233    3.2611    1.2006 H       1  UNL1        0.0700
     35 H           6.0013    2.3306    1.3332 H       1  UNL1        0.0700
     36 H          -3.2503    2.3473   -1.6004 H       1  UNL1        0.0624
     37 H          -5.6663    2.7179   -1.6971 H       1  UNL1        0.0618
     38 H          -7.3341    1.2029   -0.5551 H       1  UNL1        0.0624
     39 H          -7.3261   -1.1821    1.1038 H       1  UNL1        0.0813
     40 H          -5.4653   -2.6051    2.0107 H       1  UNL1        0.1648
     41 H          -3.1601   -1.8691    1.3630 H       1  UNL1        0.0813
@<TRIPOS>BOND
     1     1     2    1
     2     2     3    2
     3     3     4    1
     4     4     5   ar
     5     5     6   ar
     6     6     7   ar
     7     7     8   ar
     8     8     9   ar
     9     9    10   ar
    10    10    11   ar
    11    11    12   ar
    12    12    13   ar
    13    13    14   ar
    14    14    15   ar
    15    15    16   ar
    16    16    17   ar
    17    17    18   ar
    18    10    19    1
    19    19    20   ar
    20    20    21   ar
    21    21    22   ar
    22    22    23   ar
    23    23    24   ar
    24    24    25   ar
    25    25    26   ar
    26    26    27   ar
    27     5     1    1
    28    13     6   ar
    29    18    14   ar
    30    27    19   ar
    31    18     4   ar
    32    27    23   ar
    33    12     8   ar
    34     1    28    1
    35     1    29    1
    36     2    30    1
    37     3    31    1
    38     7    32    1
    39     9    33    1
    40    15    34    1
    41    17    35    1
    42    20    36    1
    43    21    37    1
    44    22    38    1
    45    24    39    1
    46    25    40    1
    47    26    41    1
