@<TRIPOS>MOLECULE
*****
 36 40 0 0 0
SMALL
GASTEIGER

@<TRIPOS>ATOM
      1 C          -2.4564    1.8951   -2.0374 C.3     1  UNL1        0.0000
      2 C          -3.9533    1.8336   -1.9074 C.2     1  UNL1        0.0000
      3 C          -4.2918    0.9616   -0.9455 C.2     1  UNL1        0.0000
      4 C          -3.0975    0.3870   -0.3714 C.ar    1  UNL1        0.0000
      5 C          -2.0150    0.9124   -0.9908 C.ar    1  UNL1        0.0000
      6 C          -0.6651    0.5325   -0.6355 C.ar    1  UNL1        0.0000
      7 SI          0.8866    1.1855   -1.4346 Si      1  UNL1        0.0000
      8 C           1.8938    0.0766   -0.2608 C.2     1  UNL1        0.0000
      9 C           1.0532   -0.6074    0.5458 C.2     1  UNL1        0.0000
     10 C          -0.3795   -0.3709    0.3439 C.ar    1  UNL1        0.0000
     11 C          -1.5068   -0.9774    1.0554 C.ar    1  UNL1        0.0000
     12 C          -1.4275   -1.8899    2.0443 C.2     1  UNL1        0.0000
     13 SI         -3.1303   -2.3782    2.6431 Si      1  UNL1        0.0000
     14 C          -3.8675   -1.2026    1.3930 C.2     1  UNL1        0.0000
     15 C          -2.8999   -0.5880    0.6863 C.ar    1  UNL1        0.0000
     16 C           3.3303    0.0305   -0.2428 C.2     1  UNL1        0.0000
     17 C           4.1259    0.0815    0.8491 C.2     1  UNL1        0.0000
     18 C           5.5573    0.0161    0.5979 C.2     1  UNL1        0.0000
     19 C           5.9120   -0.0845   -0.6960 C.2     1  UNL1        0.0000
     20 SI          4.4054   -0.1220   -1.8149 Si      1  UNL1        0.0000
     21 H          -2.1451    1.5887   -3.0402 H       1  UNL1        0.0000
     22 H          -2.0934    2.9052   -1.8239 H       1  UNL1        0.0000
     23 H          -4.6437    2.4100   -2.5043 H       1  UNL1        0.0000
     24 H          -5.2945    0.7143   -0.6340 H       1  UNL1        0.0000
     25 H           1.1094    2.6329   -1.1859 H       1  UNL1        0.0000
     26 H           1.0317    0.7638   -2.8523 H       1  UNL1        0.0000
     27 H           1.3904   -1.3011    1.3049 H       1  UNL1        0.0000
     28 H          -0.5384   -2.3210    2.4740 H       1  UNL1        0.0000
     29 H          -3.4512   -3.7958    2.3440 H       1  UNL1        0.0000
     30 H          -3.3828   -1.9498    4.0409 H       1  UNL1        0.0000
     31 H          -4.9331   -1.0756    1.2956 H       1  UNL1        0.0000
     32 H           3.7559    0.1779    1.8635 H       1  UNL1        0.0000
     33 H           6.2648    0.0472    1.4176 H       1  UNL1        0.0000
     34 H           6.9131   -0.1465   -1.0899 H       1  UNL1        0.0000
     35 H           4.2375   -1.4249   -2.5013 H       1  UNL1        0.0000
     36 H           4.3054    1.0830   -2.6718 H       1  UNL1        0.0000
@<TRIPOS>BOND
     1     1     2    1
     2     2     3    2
     3     3     4    1
     4     4     5   ar
     5     5     6   ar
     6     6     7    1
     7     7     8    1
     8     8     9    2
     9     9    10    1
    10    10    11   ar
    11    11    12    2
    12    12    13    1
    13    13    14    1
    14    14    15    2
    15     8    16    1
    16    16    17    2
    17    17    18    1
    18    18    19    2
    19    19    20    1
    20     5     1    1
    21    10     6   ar
    22    15    11   ar
    23    20    16    1
    24    15     4   ar
    25     1    21    1
    26     1    22    1
    27     2    23    1
    28     3    24    1
    29     7    25    1
    30     7    26    1
    31     9    27    1
    32    12    28    1
    33    13    29    1
    34    13    30    1
    35    14    31    1
    36    17    32    1
    37    18    33    1
    38    19    34    1
    39    20    35    1
    40    20    36    1
