@<TRIPOS>MOLECULE
*****
 48 55 0 0 0
SMALL
GASTEIGER

@<TRIPOS>ATOM
      1 C          -5.0925    0.8561   -0.4086 C.3     1  UNL1        0.0000
      2 C          -6.2064   -0.1157   -0.0731 C.2     1  UNL1        0.0000
      3 C          -5.7561   -1.3018    0.3606 C.2     1  UNL1        0.0000
      4 C          -4.3205   -1.2047    0.3448 C.ar    1  UNL1        0.0000
      5 C          -3.8512    0.0545   -0.1029 C.ar    1  UNL1        0.0000
      6 C          -2.4632    0.4028   -0.2099 C.ar    1  UNL1        0.0000
      7 C          -1.4300   -0.5663    0.1535 C.ar    1  UNL1        0.0000
      8 C          -1.9322   -1.8137    0.5964 C.ar    1  UNL1        0.0000
      9 C          -1.2808   -2.9514    1.0151 C.ar    1  UNL1        0.0000
     10 N          -2.2380   -3.8959    1.3428 N.ar    1  UNL1        0.0000
     11 C          -3.4988   -3.3875    1.1427 C.ar    1  UNL1        0.0000
     12 C          -3.3340   -2.1076    0.6836 C.ar    1  UNL1        0.0000
     13 C          -0.0227   -0.1943    0.0387 C.ar    1  UNL1        0.0000
     14 N           1.0947   -0.9325    0.3207 N.ar    1  UNL1        0.0000
     15 C           2.2500   -0.2132    0.0773 C.ar    1  UNL1        0.0000
     16 C           1.8462    1.0293   -0.3766 C.ar    1  UNL1        0.0000
     17 C           0.4328    1.0341   -0.3981 C.ar    1  UNL1        0.0000
     18 C          -0.4967    2.0448   -0.7754 C.ar    1  UNL1        0.0000
     19 C          -0.1762    3.2776   -1.2157 C.2     1  UNL1        0.0000
     20 SI         -1.6883    4.2729   -1.5952 Si      1  UNL1        0.0000
     21 C          -2.7207    2.7997   -1.0779 C.2     1  UNL1        0.0000
     22 C          -1.9648    1.7483   -0.6884 C.ar    1  UNL1        0.0000
     23 C           3.5599   -0.7706    0.2969 C.ar    1  UNL1        0.0000
     24 S           3.7483   -2.3989    0.8906 S.2     1  UNL1        0.0000
     25 C           5.4679   -2.3210    0.8853 C.ar    1  UNL1        0.0000
     26 C           5.8915   -1.0978    0.4467 C.ar    1  UNL1        0.0000
     27 C           7.2197   -0.5909    0.2803 C.2     1  UNL1        0.0000
     28 C           7.2898    0.6765   -0.1791 C.2     1  UNL1        0.0000
     29 SI          5.5465    1.4003   -0.4654 Si      1  UNL1        0.0000
     30 C           4.8053   -0.2344    0.1187 C.ar    1  UNL1        0.0000
     31 H          -5.1460    1.1222   -1.4681 H       1  UNL1        0.0000
     32 H          -5.1688    1.7366    0.2357 H       1  UNL1        0.0000
     33 H          -7.2519    0.1378   -0.1785 H       1  UNL1        0.0000
     34 H          -6.3288   -2.1616    0.6630 H       1  UNL1        0.0000
     35 H          -0.2450   -3.2236    1.1270 H       1  UNL1        0.0000
     36 H          -2.0365   -4.8279    1.6814 H       1  UNL1        0.0000
     37 H          -4.3783   -3.9830    1.3456 H       1  UNL1        0.0000
     38 H           1.1080   -1.8783    0.6624 H       1  UNL1        0.0000
     39 H           2.4841    1.8507   -0.6638 H       1  UNL1        0.0000
     40 H           0.8140    3.6818   -1.3480 H       1  UNL1        0.0000
     41 H          -1.8649    5.4287   -0.6834 H       1  UNL1        0.0000
     42 H          -1.8328    4.5792   -3.0388 H       1  UNL1        0.0000
     43 H          -3.7870    2.9001   -1.1286 H       1  UNL1        0.0000
     44 H           6.0554   -3.1711    1.2019 H       1  UNL1        0.0000
     45 H           8.0953   -1.1876    0.5088 H       1  UNL1        0.0000
     46 H           8.1746    1.2589   -0.3788 H       1  UNL1        0.0000
     47 H           5.3304    1.6921   -1.9047 H       1  UNL1        0.0000
     48 H           5.2988    2.5460    0.4454 H       1  UNL1        0.0000
@<TRIPOS>BOND
     1     1     2    1
     2     2     3    2
     3     3     4    1
     4     4     5   ar
     5     5     6   ar
     6     6     7   ar
     7     7     8   ar
     8     8     9   ar
     9     9    10   ar
    10    10    11   ar
    11    11    12   ar
    12     7    13   ar
    13    13    14   ar
    14    14    15   ar
    15    15    16   ar
    16    16    17   ar
    17    17    18   ar
    18    18    19    2
    19    19    20    1
    20    20    21    1
    21    21    22    2
    22    15    23    1
    23    23    24   ar
    24    24    25   ar
    25    25    26   ar
    26    26    27    1
    27    27    28    2
    28    28    29    1
    29    29    30    1
    30     5     1    1
    31    22     6   ar
    32    30    23   ar
    33    12     4   ar
    34    17    13   ar
    35    22    18   ar
    36    30    26   ar
    37    12     8   ar
    38     1    31    1
    39     1    32    1
    40     2    33    1
    41     3    34    1
    42     9    35    1
    43    10    36    1
    44    11    37    1
    45    14    38    1
    46    16    39    1
    47    19    40    1
    48    20    41    1
    49    20    42    1
    50    21    43    1
    51    25    44    1
    52    27    45    1
    53    28    46    1
    54    29    47    1
    55    29    48    1
