@<TRIPOS>MOLECULE
*****
 48 54 0 0 0
SMALL
GASTEIGER

@<TRIPOS>ATOM
      1 C          -4.4116    1.3964   -1.1956 C.3     1  UNL1        0.0000
      2 C          -5.7429    0.7979   -0.8411 C.2     1  UNL1        0.0000
      3 C          -5.5883   -0.0624    0.1718 C.2     1  UNL1        0.0000
      4 C          -4.1920   -0.1282    0.5348 C.ar    1  UNL1        0.0000
      5 C          -3.4662    0.7058   -0.2455 C.ar    1  UNL1        0.0000
      6 C          -1.9810    0.7965   -0.2332 C.ar    1  UNL1        0.0000
      7 C          -1.2780   -0.1217    0.5234 C.ar    1  UNL1        0.0000
      8 C           0.2023   -0.3377    0.2699 C.ar    1  UNL1        0.0000
      9 C           0.8290   -1.5470    0.6191 C.ar    1  UNL1        0.0000
     10 C           2.2006   -1.7618    0.4242 C.ar    1  UNL1        0.0000
     11 C           3.0100   -0.7872   -0.1667 C.ar    1  UNL1        0.0000
     12 C           2.3675    0.3813   -0.6083 C.ar    1  UNL1        0.0000
     13 C           0.9855    0.6027   -0.4246 C.ar    1  UNL1        0.0000
     14 C           0.2879    1.7459   -1.0320 C.ar    1  UNL1        0.0000
     15 C           0.8896    2.7710   -1.6730 C.2     1  UNL1        0.0000
     16 SI         -0.3439    3.9730   -2.3538 Si      1  UNL1        0.0000
     17 C          -1.6816    2.8939   -1.6238 C.2     1  UNL1        0.0000
     18 C          -1.1950    1.7984   -0.9983 C.ar    1  UNL1        0.0000
     19 C           4.4618   -0.9809   -0.3696 C.ar    1  UNL1        0.0000
     20 C           5.2547   -1.7347    0.4977 C.ar    1  UNL1        0.0000
     21 C           6.6175   -1.8714    0.2371 C.ar    1  UNL1        0.0000
     22 C           7.1620   -1.2534   -0.8793 C.ar    1  UNL1        0.0000
     23 C           6.3176   -0.5166   -1.6888 C.ar    1  UNL1        0.0000
     24 N           4.9948   -0.3657   -1.4575 N.ar    1  UNL1        0.0000
     25 C          -2.0361   -0.8719    1.5683 C.ar    1  UNL1        0.0000
     26 C          -1.5281   -1.4787    2.6647 C.2     1  UNL1        0.0000
     27 SI         -2.8536   -2.3030    3.6933 Si      1  UNL1        0.0000
     28 C          -4.1123   -1.6215    2.5073 C.2     1  UNL1        0.0000
     29 C          -3.5153   -0.9146    1.5278 C.ar    1  UNL1        0.0000
     30 H          -4.4655    2.4723   -1.0109 H       1  UNL1        0.0000
     31 H          -4.1633    1.1924   -2.2414 H       1  UNL1        0.0000
     32 H          -6.6754    1.0425   -1.3258 H       1  UNL1        0.0000
     33 H          -6.3687   -0.6406    0.6411 H       1  UNL1        0.0000
     34 H           0.2536   -2.3749    1.0240 H       1  UNL1        0.0000
     35 H           2.6139   -2.7241    0.7175 H       1  UNL1        0.0000
     36 H           2.9688    1.1204   -1.1333 H       1  UNL1        0.0000
     37 H           1.9432    2.9348   -1.8268 H       1  UNL1        0.0000
     38 H          -0.2774    5.3036   -1.7028 H       1  UNL1        0.0000
     39 H          -0.3828    3.9904   -3.8359 H       1  UNL1        0.0000
     40 H          -2.6919    3.2390   -1.7139 H       1  UNL1        0.0000
     41 H           4.8326   -2.2026    1.3806 H       1  UNL1        0.0000
     42 H           7.2466   -2.4532    0.9047 H       1  UNL1        0.0000
     43 H           8.2173   -1.3399   -1.1113 H       1  UNL1        0.0000
     44 H           6.6914   -0.0102   -2.5740 H       1  UNL1        0.0000
     45 H          -0.5016   -1.5154    2.9892 H       1  UNL1        0.0000
     46 H          -2.7604   -3.7822    3.6444 H       1  UNL1        0.0000
     47 H          -2.9651   -1.7160    5.0502 H       1  UNL1        0.0000
     48 H          -5.1702   -1.7405    2.6762 H       1  UNL1        0.0000
@<TRIPOS>BOND
     1     1     2    1
     2     2     3    2
     3     3     4    1
     4     4     5   ar
     5     5     6   ar
     6     6     7   ar
     7     7     8   ar
     8     8     9   ar
     9     9    10   ar
    10    10    11   ar
    11    11    12   ar
    12    12    13   ar
    13    13    14   ar
    14    14    15    2
    15    15    16    1
    16    16    17    1
    17    17    18    2
    18    11    19    1
    19    19    20   ar
    20    20    21   ar
    21    21    22   ar
    22    22    23   ar
    23    23    24   ar
    24     7    25   ar
    25    25    26    2
    26    26    27    1
    27    27    28    1
    28    28    29    2
    29     5     1    1
    30    18     6   ar
    31    24    19   ar
    32    29    25   ar
    33    29     4   ar
    34    13     8   ar
    35    18    14   ar
    36     1    30    1
    37     1    31    1
    38     2    32    1
    39     3    33    1
    40     9    34    1
    41    10    35    1
    42    12    36    1
    43    15    37    1
    44    16    38    1
    45    16    39    1
    46    17    40    1
    47    20    41    1
    48    21    42    1
    49    22    43    1
    50    23    44    1
    51    26    45    1
    52    27    46    1
    53    27    47    1
    54    28    48    1
