@<TRIPOS>MOLECULE
*****
 45 52 0 0 0
SMALL
GASTEIGER

@<TRIPOS>ATOM
      1 C          -4.7635    0.9116    0.2189 C.3     1  UNL1       -0.0080
      2 C          -5.7492   -0.1862    0.5758 C.2     1  UNL1       -0.0791
      3 C          -5.1599   -1.3701    0.8081 C.2     1  UNL1       -0.0573
      4 C          -3.7497   -1.1499    0.6245 C.ar    1  UNL1       -0.0121
      5 C          -3.4491    0.1809    0.2745 C.ar    1  UNL1       -0.0275
      6 C          -2.1090    0.6615    0.0344 C.ar    1  UNL1       -0.0021
      7 C          -1.7088    1.9794   -0.3217 C.ar    1  UNL1        0.0081
      8 C          -2.5123    3.0850   -0.5153 C.ar    1  UNL1        0.0100
      9 N          -1.7064    4.1633   -0.8507 N.ar    1  UNL1       -0.3659
     10 C          -0.3843    3.7802   -0.8800 C.ar    1  UNL1        0.0101
     11 C          -0.4070    2.4574   -0.5576 C.ar    1  UNL1        0.0092
     12 C           0.6764    1.5547   -0.4390 C.ar    1  UNL1        0.0100
     13 C           2.0393    1.7761   -0.6184 C.ar    1  UNL1       -0.0279
     14 C           2.6482    0.5516   -0.3781 C.ar    1  UNL1        0.0511
     15 N           1.6304   -0.3440   -0.0672 N.ar    1  UNL1       -0.3535
     16 C           0.3868    0.2475   -0.0957 C.ar    1  UNL1        0.0560
     17 C          -0.9362   -0.2208    0.1398 C.ar    1  UNL1        0.0161
     18 C          -1.2976   -1.5450    0.4938 C.ar    1  UNL1        0.0097
     19 C          -0.5048   -2.6531    0.6890 C.ar    1  UNL1        0.0101
     20 N          -1.3284   -3.7132    1.0217 N.ar    1  UNL1       -0.3659
     21 C          -2.6427   -3.3107    1.0456 C.ar    1  UNL1        0.0100
     22 C          -2.6503   -1.9790    0.7238 C.ar    1  UNL1        0.0075
     23 C           4.0572    0.1645   -0.4143 C.ar    1  UNL1        0.0445
     24 C           5.1080    1.0386   -0.7230 C.ar    1  UNL1        0.0389
     25 N           6.4542    0.7597   -0.7797 N.ar    1  UNL1       -0.2603
     26 C           6.9151   -0.4965   -0.5179 C.ar    1  UNL1        0.0557
     27 C           5.9756   -1.4929   -0.1898 C.ar    1  UNL1        0.1185
     28 N           6.2429   -2.7772    0.0966 N.ar    1  UNL1       -0.1892
     29 S           4.7855   -3.5029    0.4069 S.2     1  UNL1        0.1165
     30 N           3.7486   -2.2249    0.1930 N.ar    1  UNL1       -0.1900
     31 C           4.5049   -1.1560   -0.1358 C.ar    1  UNL1        0.1119
     32 H          -4.8080    1.7124    0.9624 H       1  UNL1        0.0356
     33 H          -4.9695    1.2890   -0.7866 H       1  UNL1        0.0356
     34 H          -6.8148   -0.0147    0.6327 H       1  UNL1        0.0575
     35 H          -5.6232   -2.3036    1.0771 H       1  UNL1        0.0621
     36 H          -3.5788    3.2365   -0.4535 H       1  UNL1        0.0813
     37 H          -2.0448    5.0965   -1.0455 H       1  UNL1        0.1648
     38 H           0.4054    4.4770   -1.1217 H       1  UNL1        0.0813
     39 H           2.5262    2.7029   -0.8878 H       1  UNL1        0.0645
     40 H           1.8053   -1.3138    0.1515 H       1  UNL1        0.1659
     41 H           0.5572   -2.8270    0.6330 H       1  UNL1        0.0813
     42 H          -1.0077   -4.6520    1.2194 H       1  UNL1        0.1648
     43 H          -3.4337   -4.0070    1.2873 H       1  UNL1        0.0813
     44 H           4.8909    2.0812   -0.9555 H       1  UNL1        0.0837
     45 H           7.9819   -0.6669   -0.5751 H       1  UNL1        0.0852
@<TRIPOS>BOND
     1     1     2    1
     2     2     3    2
     3     3     4    1
     4     4     5   ar
     5     5     6   ar
     6     6     7   ar
     7     7     8   ar
     8     8     9   ar
     9     9    10   ar
    10    10    11   ar
    11    11    12   ar
    12    12    13   ar
    13    13    14   ar
    14    14    15   ar
    15    15    16   ar
    16    16    17   ar
    17    17    18   ar
    18    18    19   ar
    19    19    20   ar
    20    20    21   ar
    21    21    22   ar
    22    14    23    1
    23    23    24   ar
    24    24    25   ar
    25    25    26   ar
    26    26    27   ar
    27    27    28   ar
    28    28    29   ar
    29    29    30   ar
    30    30    31   ar
    31     5     1    1
    32    17     6   ar
    33    22    18   ar
    34    31    23   ar
    35    22     4   ar
    36    31    27   ar
    37    11     7   ar
    38    16    12   ar
    39     1    32    1
    40     1    33    1
    41     2    34    1
    42     3    35    1
    43     8    36    1
    44     9    37    1
    45    10    38    1
    46    13    39    1
    47    15    40    1
    48    19    41    1
    49    20    42    1
    50    21    43    1
    51    24    44    1
    52    26    45    1
