@<TRIPOS>MOLECULE
*****
 41 47 0 0 0
SMALL
GASTEIGER

@<TRIPOS>ATOM
      1 C          -3.7357   -1.9272    0.0558 C.3     1  UNL1        0.0000
      2 C          -5.0092   -1.1435   -0.0847 C.2     1  UNL1        0.0000
      3 C          -4.7228    0.1580   -0.2226 C.2     1  UNL1        0.0000
      4 C          -3.2881    0.3478   -0.1873 C.ar    1  UNL1        0.0000
      5 C          -2.6912   -0.8559   -0.0255 C.ar    1  UNL1        0.0000
      6 C          -1.2319   -1.0011    0.0490 C.ar    1  UNL1        0.0000
      7 C          -0.5265   -2.2084    0.2154 C.ar    1  UNL1        0.0000
      8 C          -1.0096   -3.4944    0.3440 C.ar    1  UNL1        0.0000
      9 N           0.0651   -4.3629    0.4862 N.ar    1  UNL1        0.0000
     10 C           1.2516   -3.6647    0.4529 C.ar    1  UNL1        0.0000
     11 C           0.8733   -2.3682    0.2891 C.ar    1  UNL1        0.0000
     12 C           1.6786   -1.2130    0.1883 C.ar    1  UNL1        0.0000
     13 C           3.0571   -1.0449    0.2234 C.ar    1  UNL1        0.0000
     14 C           3.2483    0.3250    0.0736 C.ar    1  UNL1        0.0000
     15 O           2.0176    0.9442   -0.0460 O.2     1  UNL1        0.0000
     16 C           1.0323   -0.0090    0.0246 C.ar    1  UNL1        0.0000
     17 C          -0.3725    0.1559   -0.0498 C.ar    1  UNL1        0.0000
     18 C          -1.0110    1.4844   -0.2274 C.ar    1  UNL1        0.0000
     19 C          -0.4027    2.6841   -0.3407 C.2     1  UNL1        0.0000
     20 SI         -1.6373    4.0694   -0.5484 Si      1  UNL1        0.0000
     21 C          -2.9968    2.7975   -0.4566 C.2     1  UNL1        0.0000
     22 C          -2.4958    1.5562   -0.2944 C.ar    1  UNL1        0.0000
     23 C           4.4689    1.0793    0.0350 C.ar    1  UNL1        0.0000
     24 C           4.5985    2.4476   -0.1171 C.ar    1  UNL1        0.0000
     25 N           5.8912    2.9412   -0.1230 N.ar    1  UNL1        0.0000
     26 C           6.7290    1.9399    0.0250 C.ar    1  UNL1        0.0000
     27 S           6.0307    0.3819    0.1765 S.2     1  UNL1        0.0000
     28 H          -3.6481   -2.6465   -0.7641 H       1  UNL1        0.0000
     29 H          -3.7191   -2.4417    1.0214 H       1  UNL1        0.0000
     30 H          -5.9990   -1.5732   -0.0748 H       1  UNL1        0.0000
     31 H          -5.4387    0.9560   -0.3425 H       1  UNL1        0.0000
     32 H          -2.0050   -3.9109    0.3525 H       1  UNL1        0.0000
     33 H          -0.0163   -5.3654    0.5981 H       1  UNL1        0.0000
     34 H           2.2074   -4.1607    0.5476 H       1  UNL1        0.0000
     35 H           3.8242   -1.7961    0.3399 H       1  UNL1        0.0000
     36 H           0.6513    2.9026   -0.3239 H       1  UNL1        0.0000
     37 H          -1.5542    4.7133   -1.8817 H       1  UNL1        0.0000
     38 H          -1.6528    4.9985    0.6073 H       1  UNL1        0.0000
     39 H          -4.0337    3.0817   -0.5302 H       1  UNL1        0.0000
     40 H           3.7716    3.1392   -0.2291 H       1  UNL1        0.0000
     41 H           7.8013    2.0840    0.0505 H       1  UNL1        0.0000
@<TRIPOS>BOND
     1     1     2    1
     2     2     3    2
     3     3     4    1
     4     4     5   ar
     5     5     6   ar
     6     6     7   ar
     7     7     8   ar
     8     8     9   ar
     9     9    10   ar
    10    10    11   ar
    11    11    12   ar
    12    12    13   ar
    13    13    14   ar
    14    14    15   ar
    15    15    16   ar
    16    16    17   ar
    17    17    18   ar
    18    18    19    2
    19    19    20    1
    20    20    21    1
    21    21    22    2
    22    14    23    1
    23    23    24   ar
    24    24    25   ar
    25    25    26   ar
    26    26    27   ar
    27     5     1    1
    28    17     6   ar
    29    22    18   ar
    30    27    23   ar
    31    22     4   ar
    32    11     7   ar
    33    16    12   ar
    34     1    28    1
    35     1    29    1
    36     2    30    1
    37     3    31    1
    38     8    32    1
    39     9    33    1
    40    10    34    1
    41    13    35    1
    42    19    36    1
    43    20    37    1
    44    20    38    1
    45    21    39    1
    46    24    40    1
    47    26    41    1
