@<TRIPOS>MOLECULE
*****
 42 48 0 0 0
SMALL
GASTEIGER

@<TRIPOS>ATOM
      1 C          -4.6582   -0.3645    0.2140 C.3     1  UNL1       -0.0080
      2 C          -5.5646    0.8498    0.1789 C.2     1  UNL1       -0.0791
      3 C          -4.8927    2.0086    0.0917 C.2     1  UNL1       -0.0573
      4 C          -3.4939    1.6590    0.0621 C.ar    1  UNL1       -0.0130
      5 C          -3.2932    0.2647    0.1318 C.ar    1  UNL1       -0.0274
      6 C          -1.9951   -0.3544    0.1205 C.ar    1  UNL1       -0.0006
      7 C          -1.6842   -1.7446    0.1861 C.ar    1  UNL1        0.0082
      8 C          -2.5608   -2.8065    0.2750 C.ar    1  UNL1        0.0100
      9 N          -1.8267   -3.9844    0.3142 N.ar    1  UNL1       -0.3659
     10 C          -0.4785   -3.7097    0.2520 C.ar    1  UNL1        0.0101
     11 C          -0.4132   -2.3527    0.1751 C.ar    1  UNL1        0.0108
     12 C           0.7244   -1.5233    0.0898 C.ar    1  UNL1        0.0306
     13 C           2.0808   -1.8164    0.0585 C.ar    1  UNL1       -0.0059
     14 C           2.6913   -0.5746   -0.0311 C.ar    1  UNL1        0.1544
     15 O           1.7433    0.4255   -0.0529 O.2     1  UNL1       -0.4526
     16 C           0.5046   -0.1655    0.0228 C.ar    1  UNL1        0.1447
     17 C          -0.7710    0.4475    0.0337 C.ar    1  UNL1        0.0341
     18 C          -1.0119    1.8446   -0.0347 C.ar    1  UNL1        0.0010
     19 C          -0.0492    2.8244   -0.1221 C.ar    1  UNL1       -0.0159
     20 S          -0.7283    4.4036   -0.1852 S.2     1  UNL1       -0.1038
     21 C          -2.3319    3.7990   -0.0960 C.ar    1  UNL1       -0.0160
     22 C          -2.3421    2.4285   -0.0203 C.ar    1  UNL1       -0.0028
     23 C           4.0861   -0.1564   -0.1028 C.ar    1  UNL1        0.1060
     24 C           4.4686    1.1788   -0.1897 C.ar    1  UNL1       -0.0327
     25 C           5.8259    1.4853   -0.2540 C.ar    1  UNL1       -0.0582
     26 C           6.7577    0.4551   -0.2299 C.ar    1  UNL1       -0.0436
     27 C           6.2919   -0.8458   -0.1421 C.ar    1  UNL1        0.0284
     28 N           4.9832   -1.1747   -0.0782 N.ar    1  UNL1       -0.2519
     29 H          -4.8554   -1.0066   -0.6491 H       1  UNL1        0.0356
     30 H          -4.7925   -0.9075    1.1537 H       1  UNL1        0.0356
     31 H          -6.6422    0.7724    0.2207 H       1  UNL1        0.0575
     32 H          -5.2996    3.0046    0.0512 H       1  UNL1        0.0621
     33 H          -3.6376   -2.8684    0.3161 H       1  UNL1        0.0813
     34 H          -2.2274   -4.9114    0.3791 H       1  UNL1        0.1648
     35 H           0.2651   -4.4944    0.2692 H       1  UNL1        0.0813
     36 H           2.5856   -2.7705    0.0933 H       1  UNL1        0.0662
     37 H           1.0255    2.7276   -0.1543 H       1  UNL1        0.0700
     38 H          -3.1659    4.4865   -0.1047 H       1  UNL1        0.0700
     39 H           3.7294    1.9725   -0.2075 H       1  UNL1        0.0640
     40 H           6.1504    2.5197   -0.3223 H       1  UNL1        0.0619
     41 H           7.8213    0.6604   -0.2784 H       1  UNL1        0.0633
     42 H           6.9808   -1.6856   -0.1199 H       1  UNL1        0.0830
@<TRIPOS>BOND
     1     1     2    1
     2     2     3    2
     3     3     4    1
     4     4     5   ar
     5     5     6   ar
     6     6     7   ar
     7     7     8   ar
     8     8     9   ar
     9     9    10   ar
    10    10    11   ar
    11    11    12   ar
    12    12    13   ar
    13    13    14   ar
    14    14    15   ar
    15    15    16   ar
    16    16    17   ar
    17    17    18   ar
    18    18    19   ar
    19    19    20   ar
    20    20    21   ar
    21    21    22   ar
    22    14    23    1
    23    23    24   ar
    24    24    25   ar
    25    25    26   ar
    26    26    27   ar
    27    27    28   ar
    28     5     1    1
    29    17     6   ar
    30    22    18   ar
    31    28    23   ar
    32    22     4   ar
    33    11     7   ar
    34    16    12   ar
    35     1    29    1
    36     1    30    1
    37     2    31    1
    38     3    32    1
    39     8    33    1
    40     9    34    1
    41    10    35    1
    42    13    36    1
    43    19    37    1
    44    21    38    1
    45    24    39    1
    46    25    40    1
    47    26    41    1
    48    27    42    1
