@<TRIPOS>MOLECULE
*****
 48 55 0 0 0
SMALL
GASTEIGER

@<TRIPOS>ATOM
      1 C          -4.8661   -0.9736   -0.0018 C.3     1  UNL1       -0.0080
      2 C          -6.0060    0.0071   -0.1692 C.2     1  UNL1       -0.0791
      3 C          -5.5878    1.2725   -0.2885 C.2     1  UNL1       -0.0573
      4 C          -4.1539    1.2091   -0.2285 C.ar    1  UNL1       -0.0121
      5 C          -3.6272   -0.0958   -0.0662 C.ar    1  UNL1       -0.0276
      6 C          -2.1977   -0.4582    0.0197 C.ar    1  UNL1       -0.0049
      7 C          -1.6743   -1.7969    0.2587 C.ar    1  UNL1       -0.0093
      8 C          -2.4993   -2.9374    0.4761 C.ar    1  UNL1       -0.0534
      9 C          -2.0237   -4.2230    0.7439 C.ar    1  UNL1       -0.0611
     10 C          -0.6709   -4.4369    0.8099 C.ar    1  UNL1       -0.0611
     11 C           0.1852   -3.3631    0.5944 C.ar    1  UNL1       -0.0534
     12 C          -0.2628   -2.0397    0.3099 C.ar    1  UNL1       -0.0095
     13 C           0.6746   -0.9874    0.0489 C.ar    1  UNL1       -0.0061
     14 C           2.0874   -1.1844    0.0220 C.ar    1  UNL1       -0.0268
     15 C           2.9705   -0.1677   -0.3242 C.ar    1  UNL1        0.0787
     16 N           2.5248    1.0462   -0.6670 N.ar    1  UNL1       -0.2538
     17 C           1.1847    1.2353   -0.6256 C.ar    1  UNL1        0.0366
     18 C           0.2028    0.3088   -0.2222 C.ar    1  UNL1        0.0092
     19 C          -1.2084    0.5991   -0.1353 C.ar    1  UNL1        0.0013
     20 C          -1.7989    1.9216   -0.1868 C.ar    1  UNL1        0.0083
     21 C          -1.2040    3.1610   -0.0677 C.ar    1  UNL1        0.0100
     22 N          -2.1818    4.1314   -0.1740 N.ar    1  UNL1       -0.3659
     23 C          -3.4152    3.5413   -0.2756 C.ar    1  UNL1        0.0100
     24 C          -3.1988    2.1885   -0.2434 C.ar    1  UNL1        0.0074
     25 C           4.4296   -0.3207   -0.3671 C.ar    1  UNL1        0.0458
     26 S           5.1842   -1.8651   -0.6077 S.2     1  UNL1       -0.0934
     27 C           6.7803   -1.2275   -0.5517 C.ar    1  UNL1       -0.0094
     28 C           6.7435    0.1223   -0.3630 C.ar    1  UNL1        0.0270
     29 S           8.0750    1.3275   -0.2238 S.2     1  UNL1       -0.0961
     30 C           6.7831    2.5036   -0.0328 C.ar    1  UNL1       -0.0231
     31 C           5.4778    2.0005   -0.0730 C.ar    1  UNL1       -0.0458
     32 C           5.4339    0.5922   -0.2699 C.ar    1  UNL1        0.0054
     33 H          -4.8847   -1.6969   -0.8222 H       1  UNL1        0.0356
     34 H          -4.9667   -1.4498    0.9779 H       1  UNL1        0.0356
     35 H          -7.0433   -0.2970   -0.1780 H       1  UNL1        0.0575
     36 H          -6.1810    2.1624   -0.4104 H       1  UNL1        0.0621
     37 H          -3.5748   -2.8746    0.4533 H       1  UNL1        0.0624
     38 H          -2.7203   -5.0417    0.9027 H       1  UNL1        0.0618
     39 H          -0.2741   -5.4256    1.0205 H       1  UNL1        0.0618
     40 H           1.2418   -3.6057    0.6543 H       1  UNL1        0.0624
     41 H           2.5140   -2.1470    0.2709 H       1  UNL1        0.0645
     42 H           0.9149    2.2096   -1.0138 H       1  UNL1        0.0836
     43 H          -0.1919    3.4866    0.1186 H       1  UNL1        0.0813
     44 H          -2.0155    5.1286   -0.1267 H       1  UNL1        0.1648
     45 H          -4.3168    4.1366   -0.3231 H       1  UNL1        0.0813
     46 H           7.6596   -1.8476   -0.6588 H       1  UNL1        0.0705
     47 H           7.0724    3.5367    0.1028 H       1  UNL1        0.0694
     48 H           4.6057    2.6349    0.0326 H       1  UNL1        0.0629
@<TRIPOS>BOND
     1     1     2    1
     2     2     3    2
     3     3     4    1
     4     4     5   ar
     5     5     6   ar
     6     6     7   ar
     7     7     8   ar
     8     8     9   ar
     9     9    10   ar
    10    10    11   ar
    11    11    12   ar
    12    12    13   ar
    13    13    14   ar
    14    14    15   ar
    15    15    16   ar
    16    16    17   ar
    17    17    18   ar
    18    18    19   ar
    19    19    20   ar
    20    20    21   ar
    21    21    22   ar
    22    22    23   ar
    23    23    24   ar
    24    15    25    1
    25    25    26   ar
    26    26    27   ar
    27    27    28   ar
    28    28    29   ar
    29    29    30   ar
    30    30    31   ar
    31    31    32   ar
    32     5     1    1
    33    19     6   ar
    34    24    20   ar
    35    32    25   ar
    36    24     4   ar
    37    32    28   ar
    38    12     7   ar
    39    18    13   ar
    40     1    33    1
    41     1    34    1
    42     2    35    1
    43     3    36    1
    44     8    37    1
    45     9    38    1
    46    10    39    1
    47    11    40    1
    48    14    41    1
    49    17    42    1
    50    21    43    1
    51    22    44    1
    52    23    45    1
    53    27    46    1
    54    30    47    1
    55    31    48    1
