@<TRIPOS>MOLECULE
*****
 48 55 0 0 0
SMALL
GASTEIGER

@<TRIPOS>ATOM
      1 C          -5.0583    0.4680   -0.3251 C.3     1  UNL1       -0.0080
      2 C          -6.1515   -0.2144    0.4657 C.2     1  UNL1       -0.0791
      3 C          -5.6806   -1.1248    1.3263 C.2     1  UNL1       -0.0573
      4 C          -4.2482   -1.0968    1.1800 C.ar    1  UNL1       -0.0130
      5 C          -3.7867   -0.1792    0.2005 C.ar    1  UNL1       -0.0276
      6 C          -2.3866    0.0495   -0.1858 C.ar    1  UNL1       -0.0049
      7 C          -1.9297    0.9196   -1.2652 C.ar    1  UNL1       -0.0093
      8 C          -2.8038    1.6883   -2.0892 C.ar    1  UNL1       -0.0534
      9 C          -2.3894    2.4937   -3.1516 C.ar    1  UNL1       -0.0611
     10 C          -1.0538    2.5678   -3.4538 C.ar    1  UNL1       -0.0611
     11 C          -0.1506    1.8486   -2.6781 C.ar    1  UNL1       -0.0534
     12 C          -0.5355    1.0325   -1.5761 C.ar    1  UNL1       -0.0095
     13 C           0.4517    0.3919   -0.7602 C.ar    1  UNL1       -0.0061
     14 C           1.8546    0.4943   -0.9912 C.ar    1  UNL1       -0.0268
     15 C           2.7855    0.0110   -0.0809 C.ar    1  UNL1        0.0801
     16 N           2.3998   -0.5410    1.0804 N.ar    1  UNL1       -0.2537
     17 C           1.0679   -0.7045    1.2562 C.ar    1  UNL1        0.0366
     18 C           0.0418   -0.3550    0.3557 C.ar    1  UNL1        0.0092
     19 C          -1.3549   -0.6552    0.5538 C.ar    1  UNL1        0.0004
     20 C          -1.8662   -1.6671    1.4673 C.ar    1  UNL1       -0.0019
     21 C          -1.1383   -2.6957    2.0296 C.ar    1  UNL1       -0.0160
     22 S          -2.0722   -3.6913    3.0826 S.2     1  UNL1       -0.1038
     23 C          -3.5143   -2.8657    2.6644 C.ar    1  UNL1       -0.0160
     24 C          -3.2630   -1.8561    1.7685 C.ar    1  UNL1       -0.0029
     25 C           4.2296    0.1030   -0.2789 C.ar    1  UNL1        0.0614
     26 S           5.0051    0.1738   -1.8355 S.2     1  UNL1       -0.0924
     27 C           6.6075    0.2663   -1.1665 C.ar    1  UNL1       -0.0145
     28 C           6.4883    0.2261    0.1771 C.ar    1  UNL1        0.0073
     29 C           7.2683    0.2304    1.3594 C.ar    1  UNL1       -0.0361
     30 C           6.3734    0.1335    2.4486 C.ar    1  UNL1        0.0028
     31 N           5.0529    0.0517    2.0182 N.ar    1  UNL1       -0.3597
     32 C           5.2040    0.1247    0.6619 C.ar    1  UNL1        0.0629
     33 H          -5.2142    0.2509   -1.3890 H       1  UNL1        0.0356
     34 H          -5.0710    1.5437   -0.1095 H       1  UNL1        0.0356
     35 H          -7.1999    0.0021    0.3193 H       1  UNL1        0.0575
     36 H          -6.2492   -1.7682    1.9804 H       1  UNL1        0.0621
     37 H          -3.8699    1.7035   -1.9327 H       1  UNL1        0.0624
     38 H          -3.1197    3.0535   -3.7312 H       1  UNL1        0.0618
     39 H          -0.7046    3.1885   -4.2712 H       1  UNL1        0.0618
     40 H           0.8917    1.9719   -2.9564 H       1  UNL1        0.0624
     41 H           2.2345    0.9663   -1.8887 H       1  UNL1        0.0645
     42 H           0.8365   -1.0935    2.2429 H       1  UNL1        0.0836
     43 H          -0.1029   -2.9700    1.8968 H       1  UNL1        0.0700
     44 H          -4.4587   -3.1951    3.0741 H       1  UNL1        0.0700
     45 H           7.4847    0.3277   -1.7962 H       1  UNL1        0.0700
     46 H           8.3448    0.2985    1.4411 H       1  UNL1        0.0639
     47 H           6.5793    0.1324    3.5133 H       1  UNL1        0.0807
     48 H           4.1723   -0.0402    2.5191 H       1  UNL1        0.1654
@<TRIPOS>BOND
     1     1     2    1
     2     2     3    2
     3     3     4    1
     4     4     5   ar
     5     5     6   ar
     6     6     7   ar
     7     7     8   ar
     8     8     9   ar
     9     9    10   ar
    10    10    11   ar
    11    11    12   ar
    12    12    13   ar
    13    13    14   ar
    14    14    15   ar
    15    15    16   ar
    16    16    17   ar
    17    17    18   ar
    18    18    19   ar
    19    19    20   ar
    20    20    21   ar
    21    21    22   ar
    22    22    23   ar
    23    23    24   ar
    24    15    25    1
    25    25    26   ar
    26    26    27   ar
    27    27    28   ar
    28    28    29   ar
    29    29    30   ar
    30    30    31   ar
    31    31    32   ar
    32     5     1    1
    33    19     6   ar
    34    24    20   ar
    35    32    25   ar
    36    24     4   ar
    37    32    28   ar
    38    12     7   ar
    39    18    13   ar
    40     1    33    1
    41     1    34    1
    42     2    35    1
    43     3    36    1
    44     8    37    1
    45     9    38    1
    46    10    39    1
    47    11    40    1
    48    14    41    1
    49    17    42    1
    50    21    43    1
    51    23    44    1
    52    27    45    1
    53    29    46    1
    54    30    47    1
    55    31    48    1
