@<TRIPOS>MOLECULE
*****
 41 48 0 0 0
SMALL
GASTEIGER

@<TRIPOS>ATOM
      1 C          -4.6584   -1.0441   -1.0235 C.3     1  UNL1       -0.0079
      2 C          -5.9425   -0.2992   -0.7342 C.2     1  UNL1       -0.0790
      3 C          -5.7358    0.8664   -0.1044 C.2     1  UNL1       -0.0558
      4 C          -4.3067    0.9791    0.0766 C.ar    1  UNL1        0.0069
      5 C          -3.6198   -0.1195   -0.4408 C.ar    1  UNL1       -0.0259
      6 C          -2.1987   -0.2341   -0.3741 C.ar    1  UNL1       -0.0003
      7 C          -1.4325   -1.2851   -0.9333 C.ar    1  UNL1        0.0285
      8 C          -1.8795   -2.3711   -1.6483 C.ar    1  UNL1        0.1000
      9 O          -0.8317   -3.1469   -2.0429 O.2     1  UNL1       -0.4698
     10 C           0.3022   -2.5576   -1.5782 C.ar    1  UNL1        0.1000
     11 C          -0.0110   -1.4112   -0.8869 C.ar    1  UNL1        0.0282
     12 C           0.8910   -0.5457   -0.2391 C.ar    1  UNL1       -0.0037
     13 C           2.3048   -0.7785   -0.2465 C.ar    1  UNL1       -0.0429
     14 C           3.2183    0.0270    0.4418 C.ar    1  UNL1        0.0175
     15 C           4.6629   -0.2033    0.4318 C.ar    1  UNL1        0.0215
     16 C           5.5595   -0.2129    1.4860 C.ar    1  UNL1       -0.0469
     17 C           6.8987   -0.4719    1.0717 C.ar    1  UNL1       -0.0541
     18 C           6.9911   -0.6430   -0.2900 C.ar    1  UNL1       -0.0237
     19 S           5.4709   -0.5073   -1.0566 S.2     1  UNL1       -0.0966
     20 C           2.6405    1.0668    1.2130 C.ar    1  UNL1        0.1087
     21 N           3.3130    1.9274    2.0012 N.ar    1  UNL1       -0.1901
     22 S           2.1998    2.8985    2.7292 S.2     1  UNL1        0.1165
     23 N           0.8149    2.2742    2.1035 N.ar    1  UNL1       -0.1901
     24 C           1.1278    1.3141    1.2192 C.ar    1  UNL1        0.1088
     25 C           0.1864    0.5405    0.4143 C.ar    1  UNL1        0.0208
     26 C          -1.3142    0.7432    0.2779 C.ar    1  UNL1        0.0211
     27 C          -2.0583    1.9292    0.7219 C.ar    1  UNL1        0.1088
     28 N          -1.5473    3.0811    1.1862 N.ar    1  UNL1       -0.1901
     29 S          -2.7853    4.0919    1.5853 S.2     1  UNL1        0.1165
     30 N          -4.0807    3.1771    1.1216 N.ar    1  UNL1       -0.1902
     31 C          -3.5778    2.0298    0.6360 C.ar    1  UNL1        0.1079
     32 H          -4.6608   -2.0120   -0.5144 H       1  UNL1        0.0356
     33 H          -4.5331   -1.1594   -2.1042 H       1  UNL1        0.0356
     34 H          -6.9167   -0.6771   -1.0145 H       1  UNL1        0.0575
     35 H          -6.4643    1.5934    0.2153 H       1  UNL1        0.0621
     36 H          -2.8408   -2.7429   -1.9682 H       1  UNL1        0.1036
     37 H           1.2164   -3.0805   -1.8216 H       1  UNL1        0.1036
     38 H           2.6999   -1.6295   -0.8005 H       1  UNL1        0.0631
     39 H           5.2701   -0.0374    2.5159 H       1  UNL1        0.0629
     40 H           7.7495   -0.5232    1.7399 H       1  UNL1        0.0623
     41 H           7.8780   -0.8461   -0.8737 H       1  UNL1        0.0693
@<TRIPOS>BOND
     1     1     2    1
     2     2     3    2
     3     3     4    1
     4     4     5   ar
     5     5     6   ar
     6     6     7   ar
     7     7     8   ar
     8     8     9   ar
     9     9    10   ar
    10    10    11   ar
    11    11    12   ar
    12    12    13   ar
    13    13    14   ar
    14    14    15    1
    15    15    16   ar
    16    16    17   ar
    17    17    18   ar
    18    18    19   ar
    19    14    20   ar
    20    20    21   ar
    21    21    22   ar
    22    22    23   ar
    23    23    24   ar
    24    24    25   ar
    25    25    26   ar
    26    26    27   ar
    27    27    28   ar
    28    28    29   ar
    29    29    30   ar
    30    30    31   ar
    31     5     1    1
    32    26     6   ar
    33    31    27   ar
    34    31     4   ar
    35    11     7   ar
    36    25    12   ar
    37    19    15   ar
    38    24    20   ar
    39     1    32    1
    40     1    33    1
    41     2    34    1
    42     3    35    1
    43     8    36    1
    44    10    37    1
    45    13    38    1
    46    16    39    1
    47    17    40    1
    48    18    41    1
