@<TRIPOS>MOLECULE
*****
 48 55 0 0 0
SMALL
GASTEIGER

@<TRIPOS>ATOM
      1 SI          3.6349   -1.8220   -2.4553 Si      1  UNL1        0.0000
      2 C           4.3161   -0.4941   -1.3395 C.2     1  UNL1        0.0000
      3 C           3.3531    0.0435   -0.5599 C.ar    1  UNL1        0.0000
      4 C           3.5473    1.2100    0.3208 C.ar    1  UNL1        0.0000
      5 C           2.4549    1.7661    0.8954 C.ar    1  UNL1        0.0000
      6 C           1.1782    1.1500    0.7066 C.ar    1  UNL1        0.0000
      7 S          -0.2440    1.8551    1.2793 S.2     1  UNL1        0.0000
      8 C          -1.2486    0.5580    0.7229 C.ar    1  UNL1        0.0000
      9 C          -0.4467   -0.5077    0.2724 C.ar    1  UNL1        0.0000
     10 C           0.9102   -0.0296    0.0334 C.ar    1  UNL1        0.0000
     11 C           2.0030   -0.5765   -0.7377 C.ar    1  UNL1        0.0000
     12 C           1.9517   -1.4884   -1.7292 C.2     1  UNL1        0.0000
     13 C          -1.0917   -1.7829    0.0996 C.ar    1  UNL1        0.0000
     14 C          -0.2942   -2.9488   -0.0097 C.ar    1  UNL1        0.0000
     15 C          -0.8461   -4.2083   -0.2240 C.ar    1  UNL1        0.0000
     16 C          -2.2179   -4.3375   -0.3095 C.ar    1  UNL1        0.0000
     17 C          -3.0293   -3.2136   -0.1348 C.ar    1  UNL1        0.0000
     18 C          -2.5088   -1.9119    0.1073 C.ar    1  UNL1        0.0000
     19 C          -3.3255   -0.7753    0.3781 C.ar    1  UNL1        0.0000
     20 C          -4.7886   -0.8426    0.3555 C.ar    1  UNL1        0.0000
     21 C          -5.6961    0.1955    0.6643 C.ar    1  UNL1        0.0000
     22 C          -5.0050    1.3370    1.0057 C.ar    1  UNL1        0.0000
     23 C          -5.6018    2.5211    1.3516 C.ar    1  UNL1        0.0000
     24 N          -4.5870    3.4111    1.5986 N.ar    1  UNL1        0.0000
     25 C          -3.3641    2.8000    1.4049 C.ar    1  UNL1        0.0000
     26 C          -3.5839    1.4885    1.0450 C.ar    1  UNL1        0.0000
     27 C          -2.6639    0.4575    0.7291 C.ar    1  UNL1        0.0000
     28 C           4.8005    1.8447    0.5810 C.ar    1  UNL1        0.0000
     29 C           5.3013    3.0543    0.1270 C.ar    1  UNL1        0.0000
     30 N           6.5640    3.4006    0.5697 N.ar    1  UNL1        0.0000
     31 C           7.0159    2.4515    1.3578 C.ar    1  UNL1        0.0000
     32 S           5.9764    1.1134    1.6104 S.2     1  UNL1        0.0000
     33 H           3.7196   -1.4548   -3.8887 H       1  UNL1        0.0000
     34 H           4.1414   -3.1704   -2.1046 H       1  UNL1        0.0000
     35 H           5.3487   -0.1903   -1.4121 H       1  UNL1        0.0000
     36 H           2.5290    2.6448    1.5308 H       1  UNL1        0.0000
     37 H           1.0801   -1.9864   -2.1218 H       1  UNL1        0.0000
     38 H           0.7830   -2.8972    0.1202 H       1  UNL1        0.0000
     39 H          -0.2037   -5.0800   -0.3093 H       1  UNL1        0.0000
     40 H          -2.6676   -5.3125   -0.4771 H       1  UNL1        0.0000
     41 H          -4.0990   -3.3961   -0.1672 H       1  UNL1        0.0000
     42 H          -5.2700   -1.7780    0.0749 H       1  UNL1        0.0000
     43 H          -6.7696    0.0829    0.6294 H       1  UNL1        0.0000
     44 H          -6.6377    2.8183    1.4408 H       1  UNL1        0.0000
     45 H          -4.7123    4.3771    1.8718 H       1  UNL1        0.0000
     46 H          -2.4731    3.3902    1.5486 H       1  UNL1        0.0000
     47 H           4.7768    3.7287   -0.5399 H       1  UNL1        0.0000
     48 H           7.9903    2.5054    1.8254 H       1  UNL1        0.0000
@<TRIPOS>BOND
     1     1     2    1
     2     2     3    2
     3     3     4   ar
     4     4     5   ar
     5     5     6   ar
     6     6     7   ar
     7     7     8   ar
     8     8     9   ar
     9     9    10   ar
    10    10    11   ar
    11    11    12    2
    12     9    13   ar
    13    13    14   ar
    14    14    15   ar
    15    15    16   ar
    16    16    17   ar
    17    17    18   ar
    18    18    19   ar
    19    19    20   ar
    20    20    21   ar
    21    21    22   ar
    22    22    23   ar
    23    23    24   ar
    24    24    25   ar
    25    25    26   ar
    26    26    27   ar
    27     4    28    1
    28    28    29   ar
    29    29    30   ar
    30    30    31   ar
    31    31    32   ar
    32    12     1    1
    33    18    13   ar
    34    27    19   ar
    35    32    28   ar
    36    11     3   ar
    37    26    22   ar
    38    10     6   ar
    39    27     8   ar
    40     1    33    1
    41     1    34    1
    42     2    35    1
    43     5    36    1
    44    12    37    1
    45    14    38    1
    46    15    39    1
    47    16    40    1
    48    17    41    1
    49    20    42    1
    50    21    43    1
    51    23    44    1
    52    24    45    1
    53    25    46    1
    54    29    47    1
    55    31    48    1
