@<TRIPOS>MOLECULE
*****
 49 56 0 0 0
SMALL
GASTEIGER

@<TRIPOS>ATOM
      1 C          -5.0168   -0.7443   -1.6743 C.3     1  UNL1       -0.0080
      2 C          -6.2086   -0.1429   -0.9880 C.2     1  UNL1       -0.0791
      3 C          -5.8668    0.5301    0.1182 C.2     1  UNL1       -0.0573
      4 C          -4.4147    0.4494    0.2750 C.ar    1  UNL1       -0.0135
      5 C          -3.8923   -0.2905   -0.7884 C.ar    1  UNL1       -0.0275
      6 C          -2.5057   -0.4869   -0.9193 C.ar    1  UNL1       -0.0019
      7 C          -1.8650   -1.2513   -1.9265 C.ar    1  UNL1        0.0285
      8 C          -2.4245   -2.0187   -2.9197 C.ar    1  UNL1        0.1000
      9 O          -1.4490   -2.6041   -3.6744 O.2     1  UNL1       -0.4698
     10 C          -0.2517   -2.2031   -3.1628 C.ar    1  UNL1        0.1000
     11 C          -0.4606   -1.3767   -2.0872 C.ar    1  UNL1        0.0282
     12 C           0.5081   -0.7115   -1.3225 C.ar    1  UNL1       -0.0060
     13 C           1.9067   -0.7860   -1.5663 C.ar    1  UNL1       -0.0450
     14 C           2.7926    0.0112   -0.8452 C.ar    1  UNL1       -0.0086
     15 C           2.2467    0.8892    0.0892 C.ar    1  UNL1       -0.0529
     16 C           0.8590    0.9385    0.3293 C.ar    1  UNL1       -0.0528
     17 C          -0.0904    0.0990   -0.3005 C.ar    1  UNL1       -0.0089
     18 C          -1.5745    0.1118    0.0088 C.ar    1  UNL1       -0.0015
     19 C          -2.1886    0.6954    1.2085 C.ar    1  UNL1       -0.0090
     20 C          -1.4656    1.0025    2.3912 C.ar    1  UNL1       -0.0534
     21 C          -2.0294    1.6242    3.5111 C.ar    1  UNL1       -0.0611
     22 C          -3.3732    1.9388    3.5149 C.ar    1  UNL1       -0.0611
     23 C          -4.1527    1.5733    2.4245 C.ar    1  UNL1       -0.0534
     24 C          -3.5964    0.9231    1.2982 C.ar    1  UNL1       -0.0099
     25 C           4.2453   -0.0314   -1.0704 C.ar    1  UNL1        0.0468
     26 S           4.8666   -0.0573   -2.6864 S.2     1  UNL1       -0.0923
     27 C           6.4977   -0.0793   -2.1640 C.ar    1  UNL1        0.0038
     28 C           6.5824   -0.0577   -0.7974 C.ar    1  UNL1        0.0968
     29 N           7.7708   -0.0666   -0.1320 N.ar    1  UNL1       -0.2514
     30 C           7.5676   -0.0426    1.2135 C.ar    1  UNL1        0.0464
     31 C           6.3156   -0.0101    1.8391 C.ar    1  UNL1        0.0464
     32 N           5.1163    0.0026    1.1958 N.ar    1  UNL1       -0.2508
     33 C           5.2862   -0.0241   -0.1602 C.ar    1  UNL1        0.1039
     34 H          -5.1054   -1.8343   -1.6858 H       1  UNL1        0.0356
     35 H          -4.9184   -0.3421   -2.6867 H       1  UNL1        0.0356
     36 H          -7.2201   -0.2516   -1.3525 H       1  UNL1        0.0575
     37 H          -6.5398    1.0458    0.7829 H       1  UNL1        0.0621
     38 H          -3.4276   -2.2663   -3.2302 H       1  UNL1        0.1036
     39 H           0.6185   -2.5833   -3.6785 H       1  UNL1        0.1036
     40 H           2.2841   -1.4606   -2.3296 H       1  UNL1        0.0630
     41 H           2.8916    1.5709    0.6422 H       1  UNL1        0.0624
     42 H           0.5329    1.7269    1.0033 H       1  UNL1        0.0624
     43 H          -0.4281    0.6965    2.4974 H       1  UNL1        0.0624
     44 H          -1.4129    1.8410    4.3795 H       1  UNL1        0.0618
     45 H          -3.8249    2.4231    4.3757 H       1  UNL1        0.0618
     46 H          -5.2190    1.7784    2.4775 H       1  UNL1        0.0624
     47 H           7.3090   -0.1038   -2.8767 H       1  UNL1        0.0715
     48 H           8.4749   -0.0505    1.8112 H       1  UNL1        0.0845
     49 H           6.2500    0.0063    2.9235 H       1  UNL1        0.0845
@<TRIPOS>BOND
     1     1     2    1
     2     2     3    2
     3     3     4    1
     4     4     5   ar
     5     5     6   ar
     6     6     7   ar
     7     7     8   ar
     8     8     9   ar
     9     9    10   ar
    10    10    11   ar
    11    11    12   ar
    12    12    13   ar
    13    13    14   ar
    14    14    15   ar
    15    15    16   ar
    16    16    17   ar
    17    17    18   ar
    18    18    19   ar
    19    19    20   ar
    20    20    21   ar
    21    21    22   ar
    22    22    23   ar
    23    23    24   ar
    24    14    25    1
    25    25    26   ar
    26    26    27   ar
    27    27    28   ar
    28    28    29   ar
    29    29    30   ar
    30    30    31   ar
    31    31    32   ar
    32    32    33   ar
    33     5     1    1
    34    18     6   ar
    35    24    19   ar
    36    33    25   ar
    37    24     4   ar
    38    33    28   ar
    39    11     7   ar
    40    17    12   ar
    41     1    34    1
    42     1    35    1
    43     2    36    1
    44     3    37    1
    45     8    38    1
    46    10    39    1
    47    13    40    1
    48    15    41    1
    49    16    42    1
    50    20    43    1
    51    21    44    1
    52    22    45    1
    53    23    46    1
    54    27    47    1
    55    30    48    1
    56    31    49    1
