@<TRIPOS>MOLECULE
*****
 43 50 0 0 0
SMALL
GASTEIGER

@<TRIPOS>ATOM
      1 C          -5.0298   -0.8044    0.4336 C.3     1  UNL1       -0.0080
      2 C          -6.1010    0.2245    0.1206 C.2     1  UNL1       -0.0791
      3 C          -5.6051    1.4023   -0.2931 C.2     1  UNL1       -0.0572
      4 C          -4.1756    1.2490   -0.2874 C.ar    1  UNL1       -0.0105
      5 C          -3.7694   -0.0369    0.1338 C.ar    1  UNL1       -0.0273
      6 C          -2.3879   -0.4508    0.2291 C.ar    1  UNL1        0.0011
      7 C          -1.8571   -1.7062    0.6360 C.ar    1  UNL1        0.0286
      8 C          -2.5440   -2.8306    1.0378 C.ar    1  UNL1        0.1000
      9 O          -1.6742   -3.8481    1.3535 O.2     1  UNL1       -0.4698
     10 C          -0.3998   -3.3825    1.1553 C.ar    1  UNL1        0.1001
     11 C          -0.5057   -2.0995    0.7254 C.ar    1  UNL1        0.0312
     12 C           0.4919   -1.1644    0.3775 C.ar    1  UNL1        0.0321
     13 C           1.8802   -1.2359    0.3572 C.ar    1  UNL1       -0.0068
     14 C           2.3016    0.0195   -0.0804 C.ar    1  UNL1        0.1448
     15 O           1.1788    0.8051   -0.3097 O.2     1  UNL1       -0.4536
     16 C           0.0602    0.0739   -0.0268 C.ar    1  UNL1        0.1448
     17 C          -1.2927    0.4600   -0.1137 C.ar    1  UNL1        0.0367
     18 C          -1.7545    1.7224   -0.5252 C.ar    1  UNL1        0.0317
     19 C          -1.0421    2.8259   -0.9207 C.ar    1  UNL1        0.1001
     20 O          -1.9008    3.8457   -1.2375 O.2     1  UNL1       -0.4698
     21 C          -3.1776    3.3916   -1.0430 C.ar    1  UNL1        0.1000
     22 C          -3.1341    2.0966   -0.6071 C.ar    1  UNL1        0.0280
     23 C           3.6227    0.5428   -0.2995 C.ar    1  UNL1        0.0783
     24 S           3.8649    2.1819   -0.8594 S.2     1  UNL1       -0.0909
     25 C           5.5916    2.0524   -0.8715 C.ar    1  UNL1       -0.0144
     26 C           5.9037    0.8082   -0.4625 C.ar    1  UNL1        0.0074
     27 C           7.0399    0.0013   -0.2275 C.ar    1  UNL1       -0.0361
     28 C           6.5672   -1.2512    0.2095 C.ar    1  UNL1        0.0028
     29 N           5.1744   -1.2849    0.2658 N.ar    1  UNL1       -0.3597
     30 C           4.8464   -0.0226   -0.1486 C.ar    1  UNL1        0.0644
     31 H          -5.0788   -1.0954    1.4866 H       1  UNL1        0.0356
     32 H          -5.1338   -1.6727   -0.2231 H       1  UNL1        0.0356
     33 H          -7.1564    0.0133    0.2260 H       1  UNL1        0.0575
     34 H          -6.1481    2.2886   -0.5749 H       1  UNL1        0.0621
     35 H          -3.5859   -3.0879    1.1582 H       1  UNL1        0.1036
     36 H           0.3991   -4.0784    1.3646 H       1  UNL1        0.1036
     37 H           2.4936   -2.0798    0.6227 H       1  UNL1        0.0662
     38 H           0.0085    3.0565   -1.0324 H       1  UNL1        0.1036
     39 H          -3.9627    4.1021   -1.2577 H       1  UNL1        0.1036
     40 H           6.2232    2.8766   -1.1695 H       1  UNL1        0.0700
     41 H           8.0808    0.2697   -0.3515 H       1  UNL1        0.0639
     42 H           7.1232   -2.1369    0.4899 H       1  UNL1        0.0807
     43 H           4.5652   -2.0411    0.5399 H       1  UNL1        0.1654
@<TRIPOS>BOND
     1     1     2    1
     2     2     3    2
     3     3     4    1
     4     4     5   ar
     5     5     6   ar
     6     6     7   ar
     7     7     8   ar
     8     8     9   ar
     9     9    10   ar
    10    10    11   ar
    11    11    12   ar
    12    12    13   ar
    13    13    14   ar
    14    14    15   ar
    15    15    16   ar
    16    16    17   ar
    17    17    18   ar
    18    18    19   ar
    19    19    20   ar
    20    20    21   ar
    21    21    22   ar
    22    14    23    1
    23    23    24   ar
    24    24    25   ar
    25    25    26   ar
    26    26    27   ar
    27    27    28   ar
    28    28    29   ar
    29    29    30   ar
    30     5     1    1
    31    17     6   ar
    32    22    18   ar
    33    30    23   ar
    34    22     4   ar
    35    30    26   ar
    36    11     7   ar
    37    16    12   ar
    38     1    31    1
    39     1    32    1
    40     2    33    1
    41     3    34    1
    42     8    35    1
    43    10    36    1
    44    13    37    1
    45    19    38    1
    46    21    39    1
    47    25    40    1
    48    27    41    1
    49    28    42    1
    50    29    43    1
