@<TRIPOS>MOLECULE
*****
 40 46 0 0 0
SMALL
GASTEIGER

@<TRIPOS>ATOM
      1 C          -4.0069   -1.4356   -0.0074 C.3     1  UNL1       -0.0080
      2 C          -5.3351   -0.7052    0.0582 C.2     1  UNL1       -0.0791
      3 C          -5.2113    0.6294   -0.0146 C.2     1  UNL1       -0.0572
      4 C          -3.8016    0.8827   -0.1327 C.ar    1  UNL1       -0.0105
      5 C          -3.0261   -0.2974   -0.1342 C.ar    1  UNL1       -0.0275
      6 C          -1.5757   -0.3190   -0.2418 C.ar    1  UNL1       -0.0049
      7 C          -0.6795   -1.4385   -0.2566 C.ar    1  UNL1       -0.0023
      8 C          -1.0757   -2.7538   -0.1683 C.ar    1  UNL1       -0.0160
      9 S           0.2448   -3.8486   -0.2279 S.2     1  UNL1       -0.1038
     10 C           1.3788   -2.5763   -0.3798 C.ar    1  UNL1       -0.0160
     11 C           0.7713   -1.3397   -0.3676 C.ar    1  UNL1       -0.0020
     12 C           1.4803   -0.1312   -0.4724 C.ar    1  UNL1       -0.0005
     13 C           0.6431    0.9984   -0.4697 C.ar    1  UNL1       -0.0444
     14 C          -0.7931    0.9173   -0.3607 C.ar    1  UNL1       -0.0057
     15 C          -1.6374    2.0613   -0.3532 C.ar    1  UNL1        0.0282
     16 C          -1.2932    3.3873   -0.4446 C.ar    1  UNL1        0.1000
     17 O          -2.4172    4.1680   -0.3969 O.2     1  UNL1       -0.4698
     18 C          -3.4955    3.3349   -0.2751 C.ar    1  UNL1        0.1000
     19 C          -3.0619    2.0385   -0.2446 C.ar    1  UNL1        0.0278
     20 C           2.9179   -0.0447   -0.5551 C.ar    1  UNL1        0.0438
     21 S           3.7502    0.4295   -1.9966 S.2     1  UNL1       -0.0939
     22 C           5.3236    0.2751   -1.2656 C.ar    1  UNL1       -0.0145
     23 C           5.1415   -0.1090    0.0144 C.ar    1  UNL1        0.0073
     24 C           5.8660   -0.4210    1.1905 C.ar    1  UNL1       -0.0361
     25 C           4.9187   -0.7494    2.1849 C.ar    1  UNL1        0.0028
     26 N           3.6139   -0.6619    1.7026 N.ar    1  UNL1       -0.3598
     27 C           3.8335   -0.2810    0.4092 C.ar    1  UNL1        0.0614
     28 H          -3.8448   -2.0014    0.9143 H       1  UNL1        0.0356
     29 H          -3.9802   -2.0855   -0.8866 H       1  UNL1        0.0356
     30 H          -6.2791   -1.2242    0.1531 H       1  UNL1        0.0575
     31 H          -5.9922    1.3706    0.0082 H       1  UNL1        0.0621
     32 H          -2.0623   -3.1763   -0.0750 H       1  UNL1        0.0700
     33 H           2.4295   -2.8184   -0.4718 H       1  UNL1        0.0700
     34 H           1.1113    1.9794   -0.5484 H       1  UNL1        0.0630
     35 H          -0.3646    3.9313   -0.5428 H       1  UNL1        0.1036
     36 H          -4.4589    3.8219   -0.2265 H       1  UNL1        0.1036
     37 H           6.2279    0.4784   -1.8203 H       1  UNL1        0.0700
     38 H           6.9393   -0.4146    1.3279 H       1  UNL1        0.0639
     39 H           5.0761   -1.0415    3.2155 H       1  UNL1        0.0807
     40 H           2.7246   -0.8299    2.1584 H       1  UNL1        0.1654
@<TRIPOS>BOND
     1     1     2    1
     2     2     3    2
     3     3     4    1
     4     4     5   ar
     5     5     6   ar
     6     6     7   ar
     7     7     8   ar
     8     8     9   ar
     9     9    10   ar
    10    10    11   ar
    11    11    12   ar
    12    12    13   ar
    13    13    14   ar
    14    14    15   ar
    15    15    16   ar
    16    16    17   ar
    17    17    18   ar
    18    18    19   ar
    19    12    20    1
    20    20    21   ar
    21    21    22   ar
    22    22    23   ar
    23    23    24   ar
    24    24    25   ar
    25    25    26   ar
    26    26    27   ar
    27     5     1    1
    28    14     6   ar
    29    19    15   ar
    30    27    20   ar
    31    19     4   ar
    32    27    23   ar
    33    11     7   ar
    34     1    28    1
    35     1    29    1
    36     2    30    1
    37     3    31    1
    38     8    32    1
    39    10    33    1
    40    13    34    1
    41    16    35    1
    42    18    36    1
    43    22    37    1
    44    24    38    1
    45    25    39    1
    46    26    40    1
