@<TRIPOS>MOLECULE
*****
 43 50 0 0 0
SMALL
GASTEIGER

@<TRIPOS>ATOM
      1 C          -5.1617    0.6532    0.9850 C.3     1  UNL1       -0.0079
      2 C          -6.4075   -0.0220    0.4590 C.2     1  UNL1       -0.0790
      3 C          -6.1416   -0.9332   -0.4864 C.2     1  UNL1       -0.0558
      4 C          -4.7067   -0.9297   -0.6563 C.ar    1  UNL1        0.0069
      5 C          -4.0675   -0.0128    0.1852 C.ar    1  UNL1       -0.0260
      6 C          -2.6451    0.1732    0.1993 C.ar    1  UNL1       -0.0029
      7 C          -1.9169    1.0861    1.0264 C.ar    1  UNL1       -0.0022
      8 C          -2.4878    1.9367    1.9491 C.ar    1  UNL1       -0.0160
      9 S          -1.3420    2.9011    2.7805 S.2     1  UNL1       -0.1038
     10 C          -0.0493    2.1955    1.9169 C.ar    1  UNL1       -0.0160
     11 C          -0.4775    1.2462    1.0119 C.ar    1  UNL1       -0.0025
     12 C           0.4147    0.5233    0.1783 C.ar    1  UNL1       -0.0084
     13 C           1.8297    0.6993    0.1800 C.ar    1  UNL1       -0.0452
     14 C           2.6539   -0.0461   -0.6595 C.ar    1  UNL1       -0.0096
     15 C           2.0505   -0.9655   -1.5073 C.ar    1  UNL1       -0.0529
     16 C           0.6550   -1.1368   -1.5107 C.ar    1  UNL1       -0.0528
     17 C          -0.2408   -0.4135   -0.6792 C.ar    1  UNL1       -0.0074
     18 C          -1.7293   -0.5852   -0.6711 C.ar    1  UNL1        0.0189
     19 C          -2.4303   -1.5398   -1.5431 C.ar    1  UNL1        0.1087
     20 N          -1.8809   -2.3745   -2.4467 N.ar    1  UNL1       -0.1901
     21 S          -3.0854   -3.2401   -3.1683 S.2     1  UNL1        0.1165
     22 N          -4.4039   -2.6233   -2.3904 N.ar    1  UNL1       -0.1902
     23 C          -3.9407   -1.7053   -1.5263 C.ar    1  UNL1        0.1079
     24 C           4.0984    0.1353   -0.6500 C.ar    1  UNL1        0.0336
     25 S           4.9817    0.5791   -2.0642 S.2     1  UNL1       -0.0949
     26 C           6.4916    0.5981   -1.2345 C.ar    1  UNL1       -0.0155
     27 C           6.2611    0.2686    0.0557 C.ar    1  UNL1       -0.0032
     28 C           7.1047    0.1205    1.1824 C.ar    1  UNL1       -0.0465
     29 C           6.3979   -0.2486    2.3326 C.ar    1  UNL1       -0.0231
     30 S           4.6598   -0.4488    2.1506 S.2     1  UNL1       -0.0955
     31 C           4.9412    0.0021    0.4221 C.ar    1  UNL1        0.0341
     32 H          -5.2111    1.7263    0.7796 H       1  UNL1        0.0356
     33 H          -5.0570    0.4487    2.0543 H       1  UNL1        0.0356
     34 H          -7.4002    0.2150    0.8165 H       1  UNL1        0.0575
     35 H          -6.8334   -1.5577   -1.0285 H       1  UNL1        0.0621
     36 H          -3.5167    2.0867    2.2241 H       1  UNL1        0.0700
     37 H           0.9522    2.5332    2.1393 H       1  UNL1        0.0700
     38 H           2.2917    1.4298    0.8381 H       1  UNL1        0.0630
     39 H           2.6514   -1.5756   -2.1794 H       1  UNL1        0.0624
     40 H           0.2944   -1.8830   -2.2109 H       1  UNL1        0.0624
     41 H           7.4145    0.8410   -1.7416 H       1  UNL1        0.0700
     42 H           8.1779    0.2673    1.1820 H       1  UNL1        0.0629
     43 H           6.8108   -0.4248    3.3166 H       1  UNL1        0.0694
@<TRIPOS>BOND
     1     1     2    1
     2     2     3    2
     3     3     4    1
     4     4     5   ar
     5     5     6   ar
     6     6     7   ar
     7     7     8   ar
     8     8     9   ar
     9     9    10   ar
    10    10    11   ar
    11    11    12   ar
    12    12    13   ar
    13    13    14   ar
    14    14    15   ar
    15    15    16   ar
    16    16    17   ar
    17    17    18   ar
    18    18    19   ar
    19    19    20   ar
    20    20    21   ar
    21    21    22   ar
    22    22    23   ar
    23    14    24    1
    24    24    25   ar
    25    25    26   ar
    26    26    27   ar
    27    27    28   ar
    28    28    29   ar
    29    29    30   ar
    30    30    31   ar
    31     5     1    1
    32    18     6   ar
    33    23    19   ar
    34    31    24   ar
    35    23     4   ar
    36    31    27   ar
    37    11     7   ar
    38    17    12   ar
    39     1    32    1
    40     1    33    1
    41     2    34    1
    42     3    35    1
    43     8    36    1
    44    10    37    1
    45    13    38    1
    46    15    39    1
    47    16    40    1
    48    26    41    1
    49    28    42    1
    50    29    43    1
