@<TRIPOS>MOLECULE
*****
 46 53 0 0 0
SMALL
GASTEIGER

@<TRIPOS>ATOM
      1 C          -5.2224   -1.1334    0.0755 C.3     1  UNL1       -0.0080
      2 C          -6.3457   -0.1693   -0.2499 C.2     1  UNL1       -0.0791
      3 C          -5.9101    1.0674   -0.5330 C.2     1  UNL1       -0.0573
      4 C          -4.4774    1.0129   -0.4164 C.ar    1  UNL1       -0.0121
      5 C          -3.9979   -0.2619   -0.0582 C.ar    1  UNL1       -0.0275
      6 C          -2.5909   -0.5773    0.1225 C.ar    1  UNL1       -0.0039
      7 C          -2.0187   -1.8353    0.4824 C.ar    1  UNL1       -0.0022
      8 C          -2.7440   -2.9863    0.7217 C.ar    1  UNL1       -0.0160
      9 S          -1.7639   -4.3458    1.1361 S.2     1  UNL1       -0.1038
     10 C          -0.3248   -3.4245    1.0063 C.ar    1  UNL1       -0.0160
     11 C          -0.6440   -2.1417    0.6586 C.ar    1  UNL1       -0.0020
     12 C           0.3205   -1.1007    0.4643 C.ar    1  UNL1       -0.0014
     13 C           1.7142   -1.2629    0.6052 C.ar    1  UNL1       -0.0386
     14 C           2.3625   -0.0751    0.3478 C.ar    1  UNL1        0.0211
     15 S           1.2606    1.1726   -0.0379 S.2     1  UNL1       -0.0876
     16 C          -0.1446    0.1598    0.1122 C.ar    1  UNL1        0.0289
     17 C          -1.5406    0.4386   -0.0600 C.ar    1  UNL1        0.0065
     18 C          -2.0898    1.7023   -0.4216 C.ar    1  UNL1        0.0088
     19 C          -1.4634    2.9002   -0.6850 C.ar    1  UNL1        0.0100
     20 N          -2.4272    3.8403   -0.9943 N.ar    1  UNL1       -0.3659
     21 C          -3.6767    3.2748   -0.9372 C.ar    1  UNL1        0.0100
     22 C          -3.4947    1.9621   -0.5883 C.ar    1  UNL1        0.0074
     23 C           3.7869    0.2081    0.3717 C.ar    1  UNL1       -0.0031
     24 C           4.3981    1.1102    1.2770 C.ar    1  UNL1       -0.0529
     25 C           5.8064    1.3685    1.3176 C.ar    1  UNL1       -0.0606
     26 C           6.7457    0.7541    0.4617 C.ar    1  UNL1       -0.0535
     27 C           6.1389   -0.1309   -0.4303 C.ar    1  UNL1       -0.0103
     28 C           6.8547   -0.8389   -1.3636 C.ar    1  UNL1       -0.0166
     29 S           5.8239   -1.8266   -2.3199 S.2     1  UNL1       -0.1039
     30 C           4.4163   -1.2995   -1.4829 C.ar    1  UNL1       -0.0160
     31 C           4.7208   -0.4029   -0.4841 C.ar    1  UNL1       -0.0027
     32 H          -5.2134   -1.9496   -0.6525 H       1  UNL1        0.0356
     33 H          -5.3386   -1.5053    1.0974 H       1  UNL1        0.0356
     34 H          -7.3858   -0.4638   -0.2496 H       1  UNL1        0.0575
     35 H          -6.4913    1.9347   -0.7952 H       1  UNL1        0.0621
     36 H          -3.8055   -3.1605    0.6895 H       1  UNL1        0.0700
     37 H           0.6353   -3.8840    1.1918 H       1  UNL1        0.0700
     38 H           2.2369   -2.1711    0.8766 H       1  UNL1        0.0635
     39 H          -0.4306    3.2104   -0.6935 H       1  UNL1        0.0813
     40 H          -2.2356    4.8055   -1.2298 H       1  UNL1        0.1648
     41 H          -4.5621    3.8579   -1.1500 H       1  UNL1        0.0813
     42 H           3.7685    1.6382    1.9947 H       1  UNL1        0.0624
     43 H           6.1719    2.0822    2.0571 H       1  UNL1        0.0618
     44 H           7.8060    0.9647    0.5094 H       1  UNL1        0.0624
     45 H           7.9202   -0.8357   -1.5480 H       1  UNL1        0.0699
     46 H           3.4514   -1.6826   -1.7852 H       1  UNL1        0.0700
@<TRIPOS>BOND
     1     1     2    1
     2     2     3    2
     3     3     4    1
     4     4     5   ar
     5     5     6   ar
     6     6     7   ar
     7     7     8   ar
     8     8     9   ar
     9     9    10   ar
    10    10    11   ar
    11    11    12   ar
    12    12    13   ar
    13    13    14   ar
    14    14    15   ar
    15    15    16   ar
    16    16    17   ar
    17    17    18   ar
    18    18    19   ar
    19    19    20   ar
    20    20    21   ar
    21    21    22   ar
    22    14    23    1
    23    23    24   ar
    24    24    25   ar
    25    25    26   ar
    26    26    27   ar
    27    27    28   ar
    28    28    29   ar
    29    29    30   ar
    30    30    31   ar
    31     5     1    1
    32    17     6   ar
    33    22    18   ar
    34    31    23   ar
    35    22     4   ar
    36    31    27   ar
    37    11     7   ar
    38    16    12   ar
    39     1    32    1
    40     1    33    1
    41     2    34    1
    42     3    35    1
    43     8    36    1
    44    10    37    1
    45    13    38    1
    46    19    39    1
    47    20    40    1
    48    21    41    1
    49    24    42    1
    50    25    43    1
    51    26    44    1
    52    28    45    1
    53    30    46    1
