@<TRIPOS>MOLECULE
*****
 41 47 0 0 0
SMALL
GASTEIGER

@<TRIPOS>ATOM
      1 C          -4.6292   -1.2094    0.1128 C.3     1  UNL1        0.0000
      2 C          -5.7951   -0.2524   -0.0007 C.2     1  UNL1        0.0000
      3 C          -5.4109    1.0217   -0.1609 C.2     1  UNL1        0.0000
      4 C          -3.9687    1.0051   -0.1656 C.ar    1  UNL1        0.0000
      5 C          -3.4389   -0.2885   -0.0074 C.ar    1  UNL1        0.0000
      6 C          -2.0216   -0.5799    0.0217 C.ar    1  UNL1        0.0000
      7 C          -1.4122   -1.8628    0.1785 C.ar    1  UNL1        0.0000
      8 C          -2.1013   -3.0508    0.3312 C.ar    1  UNL1        0.0000
      9 S          -1.0769   -4.4303    0.4975 S.2     1  UNL1        0.0000
     10 C           0.3349   -3.4693    0.3687 C.ar    1  UNL1        0.0000
     11 C          -0.0265   -2.1608    0.2076 C.ar    1  UNL1        0.0000
     12 C           0.9063   -1.0846    0.0669 C.ar    1  UNL1        0.0000
     13 C           2.3079   -1.2414    0.0775 C.ar    1  UNL1        0.0000
     14 C           2.9548   -0.0300   -0.0879 C.ar    1  UNL1        0.0000
     15 S           1.7933    1.2301   -0.2303 S.2     1  UNL1        0.0000
     16 C           0.4036    0.1988   -0.0906 C.ar    1  UNL1        0.0000
     17 C          -1.0088    0.4814   -0.1158 C.ar    1  UNL1        0.0000
     18 C          -1.5978    1.7819   -0.2727 C.ar    1  UNL1        0.0000
     19 C          -0.9426    2.9853   -0.4212 C.ar    1  UNL1        0.0000
     20 S          -2.0032    4.3306   -0.5835 S.2     1  UNL1        0.0000
     21 C          -3.3862    3.3364   -0.4561 C.ar    1  UNL1        0.0000
     22 C          -3.0367    2.0181   -0.2952 C.ar    1  UNL1        0.0000
     23 C           4.3522    0.2277   -0.1197 C.2     1  UNL1        0.0000
     24 C           5.2737   -0.4975    0.5512 C.2     1  UNL1        0.0000
     25 C           6.6584   -0.0903    0.3594 C.2     1  UNL1        0.0000
     26 C           6.8404    0.9510   -0.4719 C.2     1  UNL1        0.0000
     27 SI          5.1976    1.5779   -1.1422 Si      1  UNL1        0.0000
     28 H          -4.6624   -1.9294   -0.7098 H       1  UNL1        0.0000
     29 H          -4.6540   -1.7056    1.0871 H       1  UNL1        0.0000
     30 H          -6.8250   -0.5782    0.0447 H       1  UNL1        0.0000
     31 H          -6.0398    1.8895   -0.2657 H       1  UNL1        0.0000
     32 H          -3.1585   -3.2475    0.3622 H       1  UNL1        0.0000
     33 H           1.3118   -3.9279    0.4197 H       1  UNL1        0.0000
     34 H           2.8428   -2.1759    0.1877 H       1  UNL1        0.0000
     35 H           0.1068    3.2177   -0.4509 H       1  UNL1        0.0000
     36 H          -4.3712    3.7788   -0.5064 H       1  UNL1        0.0000
     37 H           5.0458   -1.3309    1.2049 H       1  UNL1        0.0000
     38 H           7.4657   -0.6079    0.8633 H       1  UNL1        0.0000
     39 H           7.7769    1.4081   -0.7496 H       1  UNL1        0.0000
     40 H           5.0872    1.3575   -2.6064 H       1  UNL1        0.0000
     41 H           4.9074    2.9537   -0.6649 H       1  UNL1        0.0000
@<TRIPOS>BOND
     1     1     2    1
     2     2     3    2
     3     3     4    1
     4     4     5   ar
     5     5     6   ar
     6     6     7   ar
     7     7     8   ar
     8     8     9   ar
     9     9    10   ar
    10    10    11   ar
    11    11    12   ar
    12    12    13   ar
    13    13    14   ar
    14    14    15   ar
    15    15    16   ar
    16    16    17   ar
    17    17    18   ar
    18    18    19   ar
    19    19    20   ar
    20    20    21   ar
    21    21    22   ar
    22    14    23    1
    23    23    24    2
    24    24    25    1
    25    25    26    2
    26    26    27    1
    27     5     1    1
    28    17     6   ar
    29    22    18   ar
    30    27    23    1
    31    22     4   ar
    32    11     7   ar
    33    16    12   ar
    34     1    28    1
    35     1    29    1
    36     2    30    1
    37     3    31    1
    38     8    32    1
    39    10    33    1
    40    13    34    1
    41    19    35    1
    42    21    36    1
    43    24    37    1
    44    25    38    1
    45    26    39    1
    46    27    40    1
    47    27    41    1
