@<TRIPOS>MOLECULE
*****
 42 48 0 0 0
SMALL
GASTEIGER

@<TRIPOS>ATOM
      1 C          -4.7500   -0.6479    1.3101 C.3     1  UNL1        0.0000
      2 C          -5.9239   -0.2335    0.4406 C.2     1  UNL1        0.0000
      3 C          -5.5508    0.3402   -0.7145 C.2     1  UNL1        0.0000
      4 C          -4.1129    0.3503   -0.7001 C.ar    1  UNL1        0.0000
      5 C          -3.5744   -0.2176    0.4652 C.ar    1  UNL1        0.0000
      6 C          -2.1612   -0.3315    0.7309 C.ar    1  UNL1        0.0000
      7 C          -1.6824   -0.9300    1.9584 C.ar    1  UNL1        0.0000
      8 N          -2.4361   -1.4304    2.9570 N.ar    1  UNL1        0.0000
      9 S          -1.4078   -1.9924    4.1237 S.2     1  UNL1        0.0000
     10 N           0.0550   -1.6380    3.4386 N.ar    1  UNL1        0.0000
     11 C          -0.2034   -1.0581    2.2534 C.ar    1  UNL1        0.0000
     12 C           0.7454   -0.5888    1.3209 C.ar    1  UNL1        0.0000
     13 C           2.1951   -0.6777    1.5338 C.2     1  UNL1        0.0000
     14 C           2.9321   -0.1791    0.5208 C.2     1  UNL1        0.0000
     15 SI          1.8194    0.4977   -0.8611 Si      1  UNL1        0.0000
     16 C           0.2732    0.0011    0.1128 C.ar    1  UNL1        0.0000
     17 C          -1.1233    0.1392   -0.1994 C.ar    1  UNL1        0.0000
     18 C          -1.7453    0.7095   -1.3701 C.ar    1  UNL1        0.0000
     19 C          -1.1613    1.2680   -2.4846 C.ar    1  UNL1        0.0000
     20 N          -2.1662    1.6792   -3.3414 N.ar    1  UNL1        0.0000
     21 C          -3.3967    1.3967   -2.8017 C.ar    1  UNL1        0.0000
     22 C          -3.1647    0.8009   -1.5901 C.ar    1  UNL1        0.0000
     23 C           4.3696   -0.1241    0.4732 C.2     1  UNL1        0.0000
     24 C           5.1971    0.2523    1.4729 C.2     1  UNL1        0.0000
     25 C           6.6203    0.2070    1.1742 C.2     1  UNL1        0.0000
     26 C           6.9380   -0.2140   -0.0628 C.2     1  UNL1        0.0000
     27 SI          5.4029   -0.6279   -1.0567 Si      1  UNL1        0.0000
     28 H          -4.7598   -1.7309    1.4628 H       1  UNL1        0.0000
     29 H          -4.7792   -0.1095    2.2617 H       1  UNL1        0.0000
     30 H          -6.9505   -0.3929    0.7394 H       1  UNL1        0.0000
     31 H          -6.1789    0.7207   -1.5015 H       1  UNL1        0.0000
     32 H           2.5999   -1.1158    2.4383 H       1  UNL1        0.0000
     33 H           1.9494    1.9685   -1.0204 H       1  UNL1        0.0000
     34 H           1.9751   -0.2788   -2.1186 H       1  UNL1        0.0000
     35 H          -0.1410    1.4330   -2.7898 H       1  UNL1        0.0000
     36 H          -2.0149    2.1251   -4.2373 H       1  UNL1        0.0000
     37 H          -4.3071    1.6465   -3.3292 H       1  UNL1        0.0000
     38 H           4.8576    0.5764    2.4499 H       1  UNL1        0.0000
     39 H           7.3516    0.4970    1.9189 H       1  UNL1        0.0000
     40 H           7.9284   -0.3199   -0.4764 H       1  UNL1        0.0000
     41 H           5.2916   -2.0745   -1.3667 H       1  UNL1        0.0000
     42 H           5.1902    0.3039   -2.1933 H       1  UNL1        0.0000
@<TRIPOS>BOND
     1     1     2    1
     2     2     3    2
     3     3     4    1
     4     4     5   ar
     5     5     6   ar
     6     6     7   ar
     7     7     8   ar
     8     8     9   ar
     9     9    10   ar
    10    10    11   ar
    11    11    12   ar
    12    12    13    1
    13    13    14    2
    14    14    15    1
    15    15    16    1
    16    16    17   ar
    17    17    18   ar
    18    18    19   ar
    19    19    20   ar
    20    20    21   ar
    21    21    22   ar
    22    14    23    1
    23    23    24    2
    24    24    25    1
    25    25    26    2
    26    26    27    1
    27     5     1    1
    28    17     6   ar
    29    22    18   ar
    30    27    23    1
    31    22     4   ar
    32    11     7   ar
    33    16    12   ar
    34     1    28    1
    35     1    29    1
    36     2    30    1
    37     3    31    1
    38    13    32    1
    39    15    33    1
    40    15    34    1
    41    19    35    1
    42    20    36    1
    43    21    37    1
    44    24    38    1
    45    25    39    1
    46    26    40    1
    47    27    41    1
    48    27    42    1
