@<TRIPOS>MOLECULE
*****
 48 55 0 0 0
SMALL
GASTEIGER

@<TRIPOS>ATOM
      1 C          -5.6440   -0.4607   -1.5912 C.3     1  UNL1       -0.0079
      2 C          -6.8760    0.2431   -1.0506 C.2     1  UNL1       -0.0791
      3 C          -6.6185    1.0234    0.0112 C.2     1  UNL1       -0.0572
      4 C          -5.2077    0.8959    0.2519 C.ar    1  UNL1       -0.0105
      5 C          -4.5692    0.0384   -0.6525 C.ar    1  UNL1       -0.0260
      6 C          -3.1545   -0.2582   -0.6254 C.ar    1  UNL1        0.0157
      7 C          -2.5796   -1.1504   -1.5938 C.ar    1  UNL1        0.1085
      8 N          -3.2364   -1.7839   -2.5844 N.ar    1  UNL1       -0.1901
      9 S          -2.1359   -2.6876   -3.4191 S.2     1  UNL1        0.1165
     10 N          -0.7635   -2.3316   -2.5732 N.ar    1  UNL1       -0.1901
     11 C          -1.1117   -1.4780   -1.5914 C.ar    1  UNL1        0.1083
     12 C          -0.2217   -0.9158   -0.6243 C.ar    1  UNL1        0.0144
     13 C           1.1494   -1.2487   -0.6568 C.ar    1  UNL1       -0.0258
     14 C           1.9958   -0.6955    0.2863 C.ar    1  UNL1        0.0722
     15 N           1.5368    0.1461    1.2326 N.ar    1  UNL1       -0.2543
     16 C           0.2089    0.4444    1.2348 C.ar    1  UNL1        0.0366
     17 C          -0.7660   -0.0330    0.3436 C.ar    1  UNL1        0.0108
     18 C          -2.2047    0.2991    0.3521 C.ar    1  UNL1        0.0045
     19 C          -2.9395    1.1709    1.2445 C.ar    1  UNL1        0.0288
     20 C          -2.5075    1.9229    2.3133 C.ar    1  UNL1        0.1000
     21 O          -3.5466    2.6080    2.8836 O.2     1  UNL1       -0.4698
     22 C          -4.6739    2.3056    2.1841 C.ar    1  UNL1        0.1000
     23 C          -4.3537    1.4373    1.1791 C.ar    1  UNL1        0.0279
     24 C           3.4323   -1.0057    0.3246 C.ar    1  UNL1        0.0081
     25 C           3.8247   -2.3090    0.6904 C.ar    1  UNL1       -0.0520
     26 C           5.1668   -2.6726    0.7323 C.ar    1  UNL1       -0.0605
     27 C           6.1449   -1.7387    0.4067 C.ar    1  UNL1       -0.0540
     28 C           5.7983   -0.4308    0.0384 C.ar    1  UNL1       -0.0173
     29 C           6.8034    0.4949   -0.2891 C.ar    1  UNL1       -0.0540
     30 C           6.4857    1.7999   -0.6613 C.ar    1  UNL1       -0.0612
     31 C           5.1570    2.1974   -0.7098 C.ar    1  UNL1       -0.0611
     32 C           4.1465    1.2887   -0.3869 C.ar    1  UNL1       -0.0534
     33 C           4.4333   -0.0441   -0.0048 C.ar    1  UNL1       -0.0087
     34 H          -5.4550   -0.1468   -2.6218 H       1  UNL1        0.0356
     35 H          -5.7694   -1.5448   -1.5186 H       1  UNL1        0.0356
     36 H          -7.8553    0.1157   -1.4913 H       1  UNL1        0.0575
     37 H          -7.3116    1.6244    0.5750 H       1  UNL1        0.0621
     38 H           1.5448   -1.9238   -1.4114 H       1  UNL1        0.0646
     39 H          -0.0299    1.1231    2.0398 H       1  UNL1        0.0836
     40 H          -1.5700    2.1093    2.8106 H       1  UNL1        0.1036
     41 H          -5.5822    2.7811    2.5263 H       1  UNL1        0.1036
     42 H           3.0716   -3.0485    0.9575 H       1  UNL1        0.0624
     43 H           5.4502   -3.6810    1.0215 H       1  UNL1        0.0618
     44 H           7.1894   -2.0409    0.4453 H       1  UNL1        0.0624
     45 H           7.8511    0.2034   -0.2558 H       1  UNL1        0.0624
     46 H           7.2758    2.5033   -0.9096 H       1  UNL1        0.0618
     47 H           4.9002    3.2143   -0.9943 H       1  UNL1        0.0618
     48 H           3.1171    1.6393   -0.4277 H       1  UNL1        0.0624
@<TRIPOS>BOND
     1     1     2    1
     2     2     3    2
     3     3     4    1
     4     4     5   ar
     5     5     6   ar
     6     6     7   ar
     7     7     8   ar
     8     8     9   ar
     9     9    10   ar
    10    10    11   ar
    11    11    12   ar
    12    12    13   ar
    13    13    14   ar
    14    14    15   ar
    15    15    16   ar
    16    16    17   ar
    17    17    18   ar
    18    18    19   ar
    19    19    20   ar
    20    20    21   ar
    21    21    22   ar
    22    22    23   ar
    23    14    24    1
    24    24    25   ar
    25    25    26   ar
    26    26    27   ar
    27    27    28   ar
    28    28    29   ar
    29    29    30   ar
    30    30    31   ar
    31    31    32   ar
    32    32    33   ar
    33     5     1    1
    34    18     6   ar
    35    23    19   ar
    36    33    24   ar
    37    23     4   ar
    38    33    28   ar
    39    11     7   ar
    40    17    12   ar
    41     1    34    1
    42     1    35    1
    43     2    36    1
    44     3    37    1
    45    13    38    1
    46    16    39    1
    47    20    40    1
    48    22    41    1
    49    25    42    1
    50    26    43    1
    51    27    44    1
    52    29    45    1
    53    30    46    1
    54    31    47    1
    55    32    48    1
