@<TRIPOS>MOLECULE
*****
 41 47 0 0 0
SMALL
GASTEIGER

@<TRIPOS>ATOM
      1 C          -5.1799    1.3310    0.5724 C.3     1  UNL1       -0.0083
      2 C          -6.3665    0.6186   -0.0460 C.2     1  UNL1       -0.0790
      3 C          -6.0277   -0.4890   -0.7279 C.2     1  UNL1       -0.0558
      4 C          -4.5894   -0.6155   -0.6266 C.ar    1  UNL1        0.0066
      5 C          -4.0508    0.4457    0.1373 C.ar    1  UNL1       -0.0302
      6 C          -2.6874    0.5506    0.3804 C.ar    1  UNL1       -0.0277
      7 C          -1.9512    1.6397    1.1871 C.3     1  UNL1        0.0006
      8 C          -0.5581    1.1070    1.0190 C.ar    1  UNL1       -0.0171
      9 C           0.7577    1.4131    1.4002 C.ar    1  UNL1       -0.0323
     10 C           1.5874    0.4312    0.8488 C.ar    1  UNL1        0.0478
     11 N           0.7760   -0.4728    0.1732 N.ar    1  UNL1       -0.3539
     12 C          -0.4955   -0.0395    0.2743 C.ar    1  UNL1        0.0529
     13 C          -1.7886   -0.4293   -0.1458 C.ar    1  UNL1        0.0305
     14 C          -2.2468   -1.5148   -0.9167 C.ar    1  UNL1        0.1098
     15 N          -1.5423   -2.5088   -1.4811 N.ar    1  UNL1       -0.1901
     16 S          -2.6561   -3.4769   -2.2537 S.2     1  UNL1        0.1165
     17 N          -4.0799   -2.6826   -1.9167 N.ar    1  UNL1       -0.1902
     18 C          -3.7465   -1.6151   -1.1740 C.ar    1  UNL1        0.1079
     19 C           3.0238    0.2594    0.9576 C.ar    1  UNL1        0.0074
     20 C           3.7555    0.4536    2.1558 C.ar    1  UNL1       -0.0520
     21 C           5.1781    0.2648    2.2739 C.ar    1  UNL1       -0.0605
     22 C           6.0188   -0.1301    1.2084 C.ar    1  UNL1       -0.0526
     23 C           5.2837   -0.3005    0.0427 C.ar    1  UNL1        0.0000
     24 C           5.7938   -0.6558   -1.1788 C.ar    1  UNL1        0.0094
     25 N           4.7350   -0.6805   -2.0608 N.ar    1  UNL1       -0.3659
     26 C           3.5627   -0.3460   -1.4129 C.ar    1  UNL1        0.0100
     27 C           3.8711   -0.1208   -0.0917 C.ar    1  UNL1        0.0085
     28 H          -5.2675    1.3585    1.6622 H       1  UNL1        0.0356
     29 H          -5.0756    2.3399    0.1635 H       1  UNL1        0.0356
     30 H          -7.3808    0.9787    0.0601 H       1  UNL1        0.0575
     31 H          -6.6737   -1.1711   -1.2571 H       1  UNL1        0.0621
     32 H          -2.0720    2.6206    0.7212 H       1  UNL1        0.0362
     33 H          -2.2674    1.6329    2.2330 H       1  UNL1        0.0362
     34 H           1.0920    2.2513    1.9973 H       1  UNL1        0.0642
     35 H           1.0935   -1.3109   -0.2972 H       1  UNL1        0.1659
     36 H           3.2135    0.7514    3.0538 H       1  UNL1        0.0624
     37 H           5.6320    0.4379    3.2502 H       1  UNL1        0.0618
     38 H           7.0860   -0.2646    1.3079 H       1  UNL1        0.0624
     39 H           6.7975   -0.8803   -1.5127 H       1  UNL1        0.0813
     40 H           4.8085   -0.8944   -3.0469 H       1  UNL1        0.1648
     41 H           2.6368   -0.2864   -1.9678 H       1  UNL1        0.0813
@<TRIPOS>BOND
     1     1     2    1
     2     2     3    2
     3     3     4    1
     4     4     5   ar
     5     5     6   ar
     6     6     7    1
     7     7     8    1
     8     8     9   ar
     9     9    10   ar
    10    10    11   ar
    11    11    12   ar
    12    12    13    1
    13    13    14   ar
    14    14    15   ar
    15    15    16   ar
    16    16    17   ar
    17    17    18   ar
    18    10    19    1
    19    19    20   ar
    20    20    21   ar
    21    21    22   ar
    22    22    23   ar
    23    23    24   ar
    24    24    25   ar
    25    25    26   ar
    26    26    27   ar
    27     5     1    1
    28    13     6   ar
    29    18    14   ar
    30    27    19   ar
    31    18     4   ar
    32    27    23   ar
    33    12     8   ar
    34     1    28    1
    35     1    29    1
    36     2    30    1
    37     3    31    1
    38     7    32    1
    39     7    33    1
    40     9    34    1
    41    11    35    1
    42    20    36    1
    43    21    37    1
    44    22    38    1
    45    24    39    1
    46    25    40    1
    47    26    41    1
