@<TRIPOS>MOLECULE
*****
 45 51 0 0 0
SMALL
GASTEIGER

@<TRIPOS>ATOM
      1 C          -3.9998    2.6518   -0.9362 C.3     1  UNL1        0.0000
      2 C          -5.4931    2.5540   -1.0742 C.2     1  UNL1        0.0000
      3 C          -5.8971    1.3146   -0.7590 C.2     1  UNL1        0.0000
      4 C          -4.7532    0.5067   -0.3968 C.ar    1  UNL1        0.0000
      5 C          -3.6395    1.2643   -0.4928 C.ar    1  UNL1        0.0000
      6 C          -2.2830    0.7635   -0.1963 C.ar    1  UNL1        0.0000
      7 C          -1.1716    1.6114   -0.3181 C.ar    1  UNL1        0.0000
      8 C           0.1141    1.1120   -0.0308 C.ar    1  UNL1        0.0000
      9 S           1.6003    1.9774   -0.1126 S.2     1  UNL1        0.0000
     10 C           2.5194    0.6215    0.3720 C.ar    1  UNL1        0.0000
     11 C           1.7078   -0.4701    0.6011 C.ar    1  UNL1        0.0000
     12 C           0.3160   -0.2063    0.3720 C.ar    1  UNL1        0.0000
     13 C          -0.8123   -1.0533    0.4935 C.ar    1  UNL1        0.0000
     14 C          -2.1052   -0.5804    0.2134 C.ar    1  UNL1        0.0000
     15 C          -3.3122   -1.4443    0.3306 C.ar    1  UNL1        0.0000
     16 C          -3.3402   -2.7412    0.7054 C.2     1  UNL1        0.0000
     17 SI         -5.0892   -3.4107    0.7064 Si      1  UNL1        0.0000
     18 C          -5.6785   -1.7312    0.1516 C.2     1  UNL1        0.0000
     19 C          -4.6474   -0.8740    0.0164 C.ar    1  UNL1        0.0000
     20 C           3.9626    0.7291    0.4929 C.ar    1  UNL1        0.0000
     21 C           4.6456    1.7009    1.2693 C.ar    1  UNL1        0.0000
     22 C           6.0786    1.7754    1.3924 C.ar    1  UNL1        0.0000
     23 C           6.9787    0.8910    0.7551 C.ar    1  UNL1        0.0000
     24 C           6.2889   -0.0479   -0.0006 C.ar    1  UNL1        0.0000
     25 C           6.8561   -1.0412   -0.7556 C.ar    1  UNL1        0.0000
     26 N           5.8211   -1.7280   -1.3539 N.ar    1  UNL1        0.0000
     27 C           4.6078   -1.1827   -0.9859 C.ar    1  UNL1        0.0000
     28 C           4.8684   -0.1373   -0.1318 C.ar    1  UNL1        0.0000
     29 H          -3.5403    2.9035   -1.8971 H       1  UNL1        0.0000
     30 H          -3.7311    3.4011   -0.1850 H       1  UNL1        0.0000
     31 H          -6.1342    3.3660   -1.3816 H       1  UNL1        0.0000
     32 H          -6.9147    0.9566   -0.7682 H       1  UNL1        0.0000
     33 H          -1.2823    2.6455   -0.6295 H       1  UNL1        0.0000
     34 H           2.0927   -1.4292    0.9266 H       1  UNL1        0.0000
     35 H          -0.6529   -2.0793    0.8093 H       1  UNL1        0.0000
     36 H          -2.5166   -3.3770    0.9827 H       1  UNL1        0.0000
     37 H          -5.2911   -4.4568   -0.3250 H       1  UNL1        0.0000
     38 H          -5.5574   -3.7596    2.0693 H       1  UNL1        0.0000
     39 H          -6.7233   -1.5312   -0.0223 H       1  UNL1        0.0000
     40 H           4.0587    2.4374    1.8195 H       1  UNL1        0.0000
     41 H           6.4922    2.5661    2.0195 H       1  UNL1        0.0000
     42 H           8.0524    0.9585    0.8525 H       1  UNL1        0.0000
     43 H           7.8842   -1.3242   -0.9352 H       1  UNL1        0.0000
     44 H           5.9344   -2.5124   -1.9826 H       1  UNL1        0.0000
     45 H           3.6863   -1.5899   -1.3790 H       1  UNL1        0.0000
@<TRIPOS>BOND
     1     1     2    1
     2     2     3    2
     3     3     4    1
     4     4     5   ar
     5     5     6   ar
     6     6     7   ar
     7     7     8   ar
     8     8     9   ar
     9     9    10   ar
    10    10    11   ar
    11    11    12   ar
    12    12    13   ar
    13    13    14   ar
    14    14    15   ar
    15    15    16    2
    16    16    17    1
    17    17    18    1
    18    18    19    2
    19    10    20    1
    20    20    21   ar
    21    21    22   ar
    22    22    23   ar
    23    23    24   ar
    24    24    25   ar
    25    25    26   ar
    26    26    27   ar
    27    27    28   ar
    28     5     1    1
    29    14     6   ar
    30    19    15   ar
    31    28    20   ar
    32    19     4   ar
    33    28    24   ar
    34    12     8   ar
    35     1    29    1
    36     1    30    1
    37     2    31    1
    38     3    32    1
    39     7    33    1
    40    11    34    1
    41    13    35    1
    42    16    36    1
    43    17    37    1
    44    17    38    1
    45    18    39    1
    46    21    40    1
    47    22    41    1
    48    23    42    1
    49    25    43    1
    50    26    44    1
    51    27    45    1
