@<TRIPOS>MOLECULE
*****
 48 55 0 0 0
SMALL
GASTEIGER

@<TRIPOS>ATOM
      1 SI          1.4810   -2.0863   -3.2085 Si      1  UNL1        0.0000
      2 C           2.4932   -1.2322   -1.9016 C.2     1  UNL1        0.0000
      3 C           1.7137   -0.7127   -0.9294 C.ar    1  UNL1        0.0000
      4 C           2.2262   -0.1236    0.3174 C.ar    1  UNL1        0.0000
      5 C           1.3476    0.1794    1.2994 C.ar    1  UNL1        0.0000
      6 C          -0.0528    0.0176    1.0517 C.ar    1  UNL1        0.0000
      7 S          -1.2007    0.2766    2.2850 S.2     1  UNL1        0.0000
      8 C          -2.5525    0.0503    1.2153 C.ar    1  UNL1        0.0000
      9 C          -2.0507   -0.1630   -0.0691 C.ar    1  UNL1        0.0000
     10 C          -3.0274   -0.1359   -1.1349 C.ar    1  UNL1        0.0000
     11 C          -2.7664   -0.0304   -2.4718 C.ar    1  UNL1        0.0000
     12 S          -4.2352   -0.0449   -3.3623 S.2     1  UNL1        0.0000
     13 C          -5.1788   -0.0773   -1.9227 C.ar    1  UNL1        0.0000
     14 C          -4.4022   -0.0787   -0.7805 C.ar    1  UNL1        0.0000
     15 C          -4.9551    0.0007    0.5211 C.ar    1  UNL1        0.0000
     16 C          -6.3300    0.0361    0.8670 C.ar    1  UNL1        0.0000
     17 C          -6.7172    0.1691    2.1992 C.ar    1  UNL1        0.0000
     18 C          -5.7528    0.2753    3.1972 C.ar    1  UNL1        0.0000
     19 C          -4.3927    0.2429    2.8736 C.ar    1  UNL1        0.0000
     20 C          -3.9629    0.0984    1.5351 C.ar    1  UNL1        0.0000
     21 C          -0.6476   -0.3792   -0.1425 C.ar    1  UNL1        0.0000
     22 C           0.2439   -0.8857   -1.1573 C.ar    1  UNL1        0.0000
     23 C          -0.0461   -1.6521   -2.2274 C.2     1  UNL1        0.0000
     24 C           3.6416    0.0999    0.6055 C.ar    1  UNL1        0.0000
     25 C           4.4423   -0.6770    1.4804 C.ar    1  UNL1        0.0000
     26 C           5.8413   -0.4285    1.7264 C.ar    1  UNL1        0.0000
     27 C           6.5853    0.6158    1.1263 C.ar    1  UNL1        0.0000
     28 C           5.7766    1.3562    0.2744 C.ar    1  UNL1        0.0000
     29 C           6.1416    2.4397   -0.4781 C.ar    1  UNL1        0.0000
     30 O           5.0576    2.8909   -1.1826 O.2     1  UNL1        0.0000
     31 C           3.9957    2.0842   -0.8704 C.ar    1  UNL1        0.0000
     32 C           4.3930    1.1218    0.0220 C.ar    1  UNL1        0.0000
     33 H           1.5239   -1.3840   -4.5131 H       1  UNL1        0.0000
     34 H           1.7254   -3.5476   -3.2549 H       1  UNL1        0.0000
     35 H           3.5714   -1.2583   -1.9329 H       1  UNL1        0.0000
     36 H           1.6764    0.5843    2.2528 H       1  UNL1        0.0000
     37 H          -1.8321    0.0800   -2.9989 H       1  UNL1        0.0000
     38 H          -6.2547   -0.0581   -2.0181 H       1  UNL1        0.0000
     39 H          -7.1010   -0.0348    0.1059 H       1  UNL1        0.0000
     40 H          -7.7725    0.1957    2.4586 H       1  UNL1        0.0000
     41 H          -6.0572    0.3828    4.2357 H       1  UNL1        0.0000
     42 H          -3.6764    0.3238    3.6877 H       1  UNL1        0.0000
     43 H          -1.0067   -2.0338   -2.5296 H       1  UNL1        0.0000
     44 H           3.9808   -1.5193    1.9980 H       1  UNL1        0.0000
     45 H           6.3575   -1.0934    2.4209 H       1  UNL1        0.0000
     46 H           7.6339    0.7911    1.3195 H       1  UNL1        0.0000
     47 H           7.0576    2.9926   -0.6297 H       1  UNL1        0.0000
     48 H           3.0641    2.3316   -1.3599 H       1  UNL1        0.0000
@<TRIPOS>BOND
     1     1     2    1
     2     2     3    2
     3     3     4   ar
     4     4     5   ar
     5     5     6   ar
     6     6     7   ar
     7     7     8   ar
     8     8     9   ar
     9     9    10   ar
    10    10    11   ar
    11    11    12   ar
    12    12    13   ar
    13    13    14   ar
    14    14    15   ar
    15    15    16   ar
    16    16    17   ar
    17    17    18   ar
    18    18    19   ar
    19    19    20   ar
    20     9    21   ar
    21    21    22   ar
    22    22    23    2
    23     4    24    1
    24    24    25   ar
    25    25    26   ar
    26    26    27   ar
    27    27    28   ar
    28    28    29   ar
    29    29    30   ar
    30    30    31   ar
    31    31    32   ar
    32    23     1    1
    33    32    24   ar
    34    22     3   ar
    35    32    28   ar
    36    21     6   ar
    37    20     8   ar
    38    14    10   ar
    39    20    15   ar
    40     1    33    1
    41     1    34    1
    42     2    35    1
    43     5    36    1
    44    11    37    1
    45    13    38    1
    46    16    39    1
    47    17    40    1
    48    18    41    1
    49    19    42    1
    50    23    43    1
    51    25    44    1
    52    26    45    1
    53    27    46    1
    54    29    47    1
    55    31    48    1
