@<TRIPOS>MOLECULE
*****
 43 49 0 0 0
SMALL
GASTEIGER

@<TRIPOS>ATOM
      1 C          -5.3508   -0.9711   -0.4608 C.3     1  UNL1        0.0000
      2 C          -6.3330    0.1720   -0.2783 C.2     1  UNL1        0.0000
      3 C          -5.7419    1.3430    0.0119 C.2     1  UNL1        0.0000
      4 C          -4.3310    1.0715    0.0446 C.ar    1  UNL1        0.0000
      5 C          -4.0275   -0.2810   -0.2268 C.ar    1  UNL1        0.0000
      6 C          -2.7064   -0.8420   -0.2622 C.ar    1  UNL1        0.0000
      7 C          -2.5002   -2.2114   -0.5436 C.ar    1  UNL1        0.0000
      8 C          -1.2194   -2.7793   -0.5831 C.ar    1  UNL1        0.0000
      9 C          -0.1238   -1.9720   -0.3385 C.ar    1  UNL1        0.0000
     10 C           1.2860   -2.3231   -0.3230 C.2     1  UNL1        0.0000
     11 C           2.0158   -1.2227   -0.0389 C.2     1  UNL1        0.0000
     12 C           1.0907   -0.0232    0.1593 C.3     1  UNL1        0.0000
     13 C          -0.2666   -0.6144   -0.0556 C.ar    1  UNL1        0.0000
     14 C          -1.5406   -0.0226   -0.0105 C.ar    1  UNL1        0.0000
     15 C          -1.8848    1.3372    0.2599 C.ar    1  UNL1        0.0000
     16 C          -1.0745    2.4070    0.5424 C.ar    1  UNL1        0.0000
     17 O          -1.8327    3.5321    0.7355 O.2     1  UNL1        0.0000
     18 C          -3.1454    3.1806    0.5751 C.ar    1  UNL1        0.0000
     19 C          -3.2202    1.8475    0.2834 C.ar    1  UNL1        0.0000
     20 C           3.4495   -1.2416    0.0500 C.ar    1  UNL1        0.0000
     21 S           4.3840   -2.7043   -0.1993 S.2     1  UNL1        0.0000
     22 C           5.8983   -1.9361    0.0620 C.ar    1  UNL1        0.0000
     23 C           5.7227   -0.6099    0.3317 C.ar    1  UNL1        0.0000
     24 C           6.6907    0.4071    0.6103 C.2     1  UNL1        0.0000
     25 C           6.1770    1.6347    0.8372 C.2     1  UNL1        0.0000
     26 SI          4.2794    1.6173    0.7100 Si      1  UNL1        0.0000
     27 C           4.3476   -0.2375    0.3213 C.ar    1  UNL1        0.0000
     28 H          -5.4141   -1.3741   -1.4757 H       1  UNL1        0.0000
     29 H          -5.5278   -1.7527    0.2837 H       1  UNL1        0.0000
     30 H          -7.4017    0.0385   -0.3760 H       1  UNL1        0.0000
     31 H          -6.2100    2.2968    0.1869 H       1  UNL1        0.0000
     32 H          -3.3494   -2.8636   -0.7388 H       1  UNL1        0.0000
     33 H          -1.0959   -3.8354   -0.8024 H       1  UNL1        0.0000
     34 H           1.6294   -3.3270   -0.5168 H       1  UNL1        0.0000
     35 H           1.2969    0.7496   -0.5875 H       1  UNL1        0.0000
     36 H           1.1831    0.3704    1.1762 H       1  UNL1        0.0000
     37 H          -0.0107    2.5590    0.6439 H       1  UNL1        0.0000
     38 H          -3.8625    3.9790    0.7006 H       1  UNL1        0.0000
     39 H           6.8165   -2.5030    0.0014 H       1  UNL1        0.0000
     40 H           7.7538    0.1960    0.6347 H       1  UNL1        0.0000
     41 H           6.7152    2.5407    1.0643 H       1  UNL1        0.0000
     42 H           3.6379    1.9255    2.0122 H       1  UNL1        0.0000
     43 H           3.7966    2.4423   -0.4251 H       1  UNL1        0.0000
@<TRIPOS>BOND
     1     1     2    1
     2     2     3    2
     3     3     4    1
     4     4     5   ar
     5     5     6   ar
     6     6     7   ar
     7     7     8   ar
     8     8     9   ar
     9     9    10    1
    10    10    11    2
    11    11    12    1
    12    12    13    1
    13    13    14   ar
    14    14    15   ar
    15    15    16   ar
    16    16    17   ar
    17    17    18   ar
    18    18    19   ar
    19    11    20    1
    20    20    21   ar
    21    21    22   ar
    22    22    23   ar
    23    23    24    1
    24    24    25    2
    25    25    26    1
    26    26    27    1
    27     5     1    1
    28    14     6   ar
    29    19    15   ar
    30    27    20   ar
    31    19     4   ar
    32    27    23   ar
    33    13     9   ar
    34     1    28    1
    35     1    29    1
    36     2    30    1
    37     3    31    1
    38     7    32    1
    39     8    33    1
    40    10    34    1
    41    12    35    1
    42    12    36    1
    43    16    37    1
    44    18    38    1
    45    22    39    1
    46    24    40    1
    47    25    41    1
    48    26    42    1
    49    26    43    1
