@<TRIPOS>MOLECULE
*****
 47 54 0 0 0
SMALL
GASTEIGER

@<TRIPOS>ATOM
      1 C          -4.6319    2.0975    1.3621 C.3     1  UNL1        0.0000
      2 C          -6.0003    1.7073    0.8783 C.2     1  UNL1        0.0000
      3 C          -5.9295    0.5487    0.2064 C.2     1  UNL1        0.0000
      4 C          -4.5600    0.0858    0.1800 C.ar    1  UNL1        0.0000
      5 C          -3.7878    0.9700    0.8438 C.ar    1  UNL1        0.0000
      6 C          -2.3240    0.8360    0.9754 C.ar    1  UNL1        0.0000
      7 C          -1.6090    1.7344    1.7689 C.ar    1  UNL1        0.0000
      8 C          -0.2183    1.6634    1.8499 C.ar    1  UNL1        0.0000
      9 C           0.5209    0.7833    1.0554 C.ar    1  UNL1        0.0000
     10 C           1.9508    0.8403    1.1653 C.ar    1  UNL1        0.0000
     11 C           2.8548    0.1069    0.3703 C.ar    1  UNL1        0.0000
     12 C           4.2929    0.2192    0.4879 C.ar    1  UNL1        0.0000
     13 S           5.1067   -0.3408    1.9258 S.2     1  UNL1        0.0000
     14 C           6.6811    0.1046    1.3474 C.ar    1  UNL1        0.0000
     15 C           6.5255    0.6500    0.1279 C.ar    1  UNL1        0.0000
     16 O           7.5105    1.1383   -0.6730 O.2     1  UNL1        0.0000
     17 C           6.7476    1.5542   -1.7501 C.ar    1  UNL1        0.0000
     18 C           5.3730    1.3260   -1.6031 C.ar    1  UNL1        0.0000
     19 C           5.2379    0.7169   -0.3429 C.ar    1  UNL1        0.0000
     20 C           2.1964   -0.6457   -0.6075 C.ar    1  UNL1        0.0000
     21 C           2.8470   -1.3888   -1.5677 C.ar    1  UNL1        0.0000
     22 S           1.7531   -2.0491   -2.7071 S.2     1  UNL1        0.0000
     23 C           0.4054   -1.3601   -1.9019 C.ar    1  UNL1        0.0000
     24 C           0.7507   -0.7367   -0.7227 C.ar    1  UNL1        0.0000
     25 C          -0.1898   -0.0988    0.1646 C.ar    1  UNL1        0.0000
     26 C          -1.6263   -0.1779    0.2565 C.ar    1  UNL1        0.0000
     27 C          -2.4826   -1.2872   -0.2770 C.ar    1  UNL1        0.0000
     28 C          -2.0943   -2.5551   -0.5342 C.2     1  UNL1        0.0000
     29 SI         -3.5096   -3.6115   -1.1489 Si      1  UNL1        0.0000
     30 C          -4.6431   -2.1684   -0.8318 C.2     1  UNL1        0.0000
     31 C          -3.9571   -1.1070   -0.3628 C.ar    1  UNL1        0.0000
     32 H          -4.6129    2.1509    2.4551 H       1  UNL1        0.0000
     33 H          -4.3315    3.0594    0.9350 H       1  UNL1        0.0000
     34 H          -6.8988    2.2788    1.0542 H       1  UNL1        0.0000
     35 H          -6.7560    0.0270   -0.2503 H       1  UNL1        0.0000
     36 H          -2.1209    2.4920    2.3566 H       1  UNL1        0.0000
     37 H           0.2869    2.3604    2.5177 H       1  UNL1        0.0000
     38 H           2.3825    1.5202    1.9041 H       1  UNL1        0.0000
     39 H           7.5916   -0.0480    1.9078 H       1  UNL1        0.0000
     40 H           7.3264    1.9974   -2.5502 H       1  UNL1        0.0000
     41 H           4.6044    1.5754   -2.3209 H       1  UNL1        0.0000
     42 H           3.9067   -1.5568   -1.7011 H       1  UNL1        0.0000
     43 H          -0.5671   -1.4647   -2.3589 H       1  UNL1        0.0000
     44 H          -1.1148   -2.9882   -0.4159 H       1  UNL1        0.0000
     45 H          -3.3856   -3.9303   -2.5918 H       1  UNL1        0.0000
     46 H          -3.7888   -4.7626   -0.2572 H       1  UNL1        0.0000
     47 H          -5.7127   -2.2664   -0.9238 H       1  UNL1        0.0000
@<TRIPOS>BOND
     1     1     2    1
     2     2     3    2
     3     3     4    1
     4     4     5   ar
     5     5     6   ar
     6     6     7   ar
     7     7     8   ar
     8     8     9   ar
     9     9    10   ar
    10    10    11   ar
    11    11    12    1
    12    12    13   ar
    13    13    14   ar
    14    14    15   ar
    15    15    16   ar
    16    16    17   ar
    17    17    18   ar
    18    18    19   ar
    19    11    20   ar
    20    20    21   ar
    21    21    22   ar
    22    22    23   ar
    23    23    24   ar
    24    24    25   ar
    25    25    26   ar
    26    26    27   ar
    27    27    28    2
    28    28    29    1
    29    29    30    1
    30    30    31    2
    31     5     1    1
    32    26     6   ar
    33    31    27   ar
    34    31     4   ar
    35    25     9   ar
    36    19    12   ar
    37    24    20   ar
    38    19    15   ar
    39     1    32    1
    40     1    33    1
    41     2    34    1
    42     3    35    1
    43     7    36    1
    44     8    37    1
    45    10    38    1
    46    14    39    1
    47    17    40    1
    48    18    41    1
    49    21    42    1
    50    23    43    1
    51    28    44    1
    52    29    45    1
    53    29    46    1
    54    30    47    1
