@<TRIPOS>MOLECULE
*****
 42 47 0 0 0
SMALL
GASTEIGER

@<TRIPOS>ATOM
      1 C          -3.7885   -2.5216   -0.6563 C.3     1  UNL1       -0.0080
      2 C          -5.1605   -2.0136   -0.3192 C.2     1  UNL1       -0.0791
      3 C          -5.1489   -0.7221    0.0372 C.2     1  UNL1       -0.0573
      4 C          -3.7701   -0.2377   -0.0251 C.ar    1  UNL1       -0.0135
      5 C          -2.9460   -1.2947   -0.4254 C.ar    1  UNL1       -0.0282
      6 C          -1.5641   -1.1548   -0.5479 C.ar    1  UNL1       -0.0127
      7 C          -0.8019   -2.2412   -0.9980 C.ar    1  UNL1       -0.0531
      8 C           0.5786   -2.1616   -1.0949 C.ar    1  UNL1       -0.0534
      9 C           1.2487   -1.0307   -0.6461 C.ar    1  UNL1       -0.0167
     10 C           2.6574   -1.0357   -0.6663 C.ar    1  UNL1       -0.0458
     11 C           3.4054    0.0183   -0.1368 C.ar    1  UNL1       -0.0107
     12 C           2.7115    1.0674    0.4558 C.ar    1  UNL1       -0.0529
     13 C           1.3088    1.0814    0.4621 C.ar    1  UNL1       -0.0528
     14 C           0.5138    0.0768   -0.1456 C.ar    1  UNL1       -0.0096
     15 C          -0.9507    0.0849   -0.2124 C.ar    1  UNL1       -0.0022
     16 C          -1.8495    1.2281    0.0316 C.ar    1  UNL1       -0.0090
     17 C          -1.4283    2.5840    0.0597 C.ar    1  UNL1       -0.0534
     18 C          -2.2787    3.6561    0.3534 C.ar    1  UNL1       -0.0611
     19 C          -3.6165    3.4215    0.6022 C.ar    1  UNL1       -0.0611
     20 C          -4.1027    2.1239    0.5008 C.ar    1  UNL1       -0.0534
     21 C          -3.2538    1.0376    0.1851 C.ar    1  UNL1       -0.0099
     22 C           4.8725   -0.0269   -0.1563 C.ar    1  UNL1        0.0193
     23 C           5.7093   -1.0884    0.1411 C.ar    1  UNL1       -0.0469
     24 C           7.0889   -0.7620   -0.0073 C.ar    1  UNL1       -0.0541
     25 C           7.2668    0.5378   -0.4214 C.ar    1  UNL1       -0.0237
     26 S           5.7798    1.3538   -0.6285 S.2     1  UNL1       -0.0967
     27 H          -3.5027   -3.3344    0.0180 H       1  UNL1        0.0356
     28 H          -3.7439   -2.8467   -1.6999 H       1  UNL1        0.0356
     29 H          -6.0475   -2.6292   -0.3647 H       1  UNL1        0.0575
     30 H          -6.0043   -0.1315    0.3206 H       1  UNL1        0.0621
     31 H          -1.2761   -3.1736   -1.2962 H       1  UNL1        0.0624
     32 H           1.1250   -3.0237   -1.4716 H       1  UNL1        0.0624
     33 H           3.1819   -1.8876   -1.0967 H       1  UNL1        0.0630
     34 H           3.2443    1.8786    0.9472 H       1  UNL1        0.0624
     35 H           0.8473    1.8850    1.0280 H       1  UNL1        0.0624
     36 H          -0.4139    2.8517   -0.2201 H       1  UNL1        0.0624
     37 H          -1.8885    4.6704    0.3669 H       1  UNL1        0.0618
     38 H          -4.2880    4.2435    0.8322 H       1  UNL1        0.0618
     39 H          -5.1688    1.9706    0.6481 H       1  UNL1        0.0624
     40 H           5.3482   -2.0581    0.4623 H       1  UNL1        0.0629
     41 H           7.9072   -1.4463    0.1804 H       1  UNL1        0.0623
     42 H           8.1990    1.0505   -0.6147 H       1  UNL1        0.0693
@<TRIPOS>BOND
     1     1     2    1
     2     2     3    2
     3     3     4    1
     4     4     5   ar
     5     5     6   ar
     6     6     7   ar
     7     7     8   ar
     8     8     9   ar
     9     9    10   ar
    10    10    11   ar
    11    11    12   ar
    12    12    13   ar
    13    13    14   ar
    14    14    15   ar
    15    15    16   ar
    16    16    17   ar
    17    17    18   ar
    18    18    19   ar
    19    19    20   ar
    20    20    21   ar
    21    11    22    1
    22    22    23   ar
    23    23    24   ar
    24    24    25   ar
    25    25    26   ar
    26     5     1    1
    27    15     6   ar
    28    21    16   ar
    29    26    22   ar
    30    21     4   ar
    31    14     9   ar
    32     1    27    1
    33     1    28    1
    34     2    29    1
    35     3    30    1
    36     7    31    1
    37     8    32    1
    38    10    33    1
    39    12    34    1
    40    13    35    1
    41    17    36    1
    42    18    37    1
    43    19    38    1
    44    20    39    1
    45    23    40    1
    46    24    41    1
    47    25    42    1
