@<TRIPOS>MOLECULE
*****
 35 39 0 0 0
SMALL
GASTEIGER

@<TRIPOS>ATOM
      1 C          -3.5237   -1.9303    0.2178 C.3     1  UNL1       -0.0080
      2 C          -4.9087   -1.3548   -0.0199 C.2     1  UNL1       -0.0791
      3 C          -4.9010   -0.0445   -0.3189 C.2     1  UNL1       -0.0572
      4 C          -3.5201    0.3519   -0.3037 C.ar    1  UNL1       -0.0105
      5 C          -2.6517   -0.7173    0.0075 C.ar    1  UNL1       -0.0267
      6 C          -1.2202   -0.6124    0.0926 C.ar    1  UNL1        0.0050
      7 C          -0.3880   -1.6866    0.3969 C.ar    1  UNL1        0.0363
      8 N           0.9659   -1.6265    0.4849 N.ar    1  UNL1       -0.2543
      9 C           1.5823   -0.4333    0.2717 C.ar    1  UNL1        0.0716
     10 C           0.8612    0.7132   -0.0488 C.ar    1  UNL1       -0.0273
     11 C          -0.5424    0.6263   -0.1377 C.ar    1  UNL1       -0.0034
     12 C          -1.4448    1.6814   -0.4504 C.ar    1  UNL1        0.0282
     13 C          -1.1762    2.9958   -0.7325 C.ar    1  UNL1        0.1000
     14 O          -2.3469    3.6658   -0.9759 O.2     1  UNL1       -0.4698
     15 C          -3.3755    2.7698   -0.8486 C.ar    1  UNL1        0.1000
     16 C          -2.8656    1.5431   -0.5274 C.ar    1  UNL1        0.0278
     17 C           3.0562   -0.4449    0.3910 C.ar    1  UNL1        0.0004
     18 C           3.7791    0.6680    0.8603 C.ar    1  UNL1       -0.0526
     19 C           5.1746    0.6408    0.9606 C.ar    1  UNL1       -0.0611
     20 C           5.8787   -0.5032    0.5973 C.ar    1  UNL1       -0.0617
     21 C           5.1893   -1.6215    0.1398 C.ar    1  UNL1       -0.0611
     22 C           3.7949   -1.5911    0.0415 C.ar    1  UNL1       -0.0526
     23 H          -3.2997   -2.7119   -0.5138 H       1  UNL1        0.0356
     24 H          -3.4340   -2.3114    1.2390 H       1  UNL1        0.0356
     25 H          -5.8050   -1.9563    0.0490 H       1  UNL1        0.0575
     26 H          -5.7432    0.5929   -0.5292 H       1  UNL1        0.0621
     27 H          -0.7932   -2.6768    0.5887 H       1  UNL1        0.0836
     28 H           1.3651    1.6523   -0.2438 H       1  UNL1        0.0645
     29 H          -0.2804    3.5959   -0.8027 H       1  UNL1        0.1036
     30 H          -4.3656    3.1686   -1.0163 H       1  UNL1        0.1036
     31 H           3.2617    1.5709    1.1760 H       1  UNL1        0.0624
     32 H           5.7088    1.5124    1.3300 H       1  UNL1        0.0618
     33 H           6.9622   -0.5262    0.6774 H       1  UNL1        0.0618
     34 H           5.7311   -2.5213   -0.1390 H       1  UNL1        0.0618
     35 H           3.2750   -2.4789   -0.3163 H       1  UNL1        0.0624
@<TRIPOS>BOND
     1     1     2    1
     2     2     3    2
     3     3     4    1
     4     4     5   ar
     5     5     6   ar
     6     6     7   ar
     7     7     8   ar
     8     8     9   ar
     9     9    10   ar
    10    10    11   ar
    11    11    12   ar
    12    12    13   ar
    13    13    14   ar
    14    14    15   ar
    15    15    16   ar
    16     9    17    1
    17    17    18   ar
    18    18    19   ar
    19    19    20   ar
    20    20    21   ar
    21    21    22   ar
    22     5     1    1
    23    11     6   ar
    24    16    12   ar
    25    22    17   ar
    26    16     4   ar
    27     1    23    1
    28     1    24    1
    29     2    25    1
    30     3    26    1
    31     7    27    1
    32    10    28    1
    33    13    29    1
    34    15    30    1
    35    18    31    1
    36    19    32    1
    37    20    33    1
    38    21    34    1
    39    22    35    1
