@<TRIPOS>MOLECULE
*****
 48 55 0 0 0
SMALL
GASTEIGER

@<TRIPOS>ATOM
      1 C          -4.8518    2.6605    0.8476 C.3     1  UNL1       -0.0080
      2 C          -6.2863    2.2321    0.6002 C.2     1  UNL1       -0.0791
      3 C          -6.3935    0.9676    0.1595 C.2     1  UNL1       -0.0573
      4 C          -5.0488    0.4678    0.0728 C.ar    1  UNL1       -0.0121
      5 C          -4.0891    1.4137    0.4670 C.ar    1  UNL1       -0.0267
      6 C          -2.6750    1.1714    0.5115 C.ar    1  UNL1        0.0055
      7 C          -1.8090    2.1300    1.0206 C.ar    1  UNL1        0.0363
      8 N          -0.4681    1.9967    1.1598 N.ar    1  UNL1       -0.2543
      9 C           0.1327    0.9018    0.6897 C.ar    1  UNL1        0.0728
     10 C           1.5372    0.8756    0.8612 C.ar    1  UNL1       -0.0274
     11 C           2.4236   -0.1164    0.3820 C.ar    1  UNL1       -0.0070
     12 C           3.8512   -0.0783    0.5921 C.ar    1  UNL1       -0.0065
     13 C           4.4997   -0.4086    1.8118 C.ar    1  UNL1       -0.0533
     14 C           5.9270   -0.3606    2.0162 C.ar    1  UNL1       -0.0605
     15 C           6.8617    0.0283    1.0285 C.ar    1  UNL1       -0.0510
     16 C           6.2045    0.3559   -0.1490 C.ar    1  UNL1        0.0204
     17 C           6.7721    0.7853   -1.3181 C.ar    1  UNL1        0.0994
     18 O           5.7900    1.0133   -2.2442 O.2     1  UNL1       -0.4698
     19 C           4.5887    0.7267   -1.6528 C.ar    1  UNL1        0.1000
     20 C           4.7954    0.3105   -0.3621 C.ar    1  UNL1        0.0276
     21 C           1.7362   -1.0765   -0.3672 C.ar    1  UNL1       -0.0024
     22 C           2.3604   -2.1127   -1.0252 C.ar    1  UNL1       -0.0160
     23 S           1.2579   -3.0029   -1.9863 S.2     1  UNL1       -0.1038
     24 C          -0.0549   -2.0056   -1.5107 C.ar    1  UNL1       -0.0159
     25 C           0.2975   -1.0890   -0.5469 C.ar    1  UNL1       -0.0005
     26 C          -0.6068   -0.1435    0.0505 C.ar    1  UNL1        0.0170
     27 C          -2.0640   -0.0579    0.0793 C.ar    1  UNL1        0.0028
     28 C          -3.0935   -1.0274   -0.2117 C.ar    1  UNL1        0.0084
     29 C          -2.9767   -2.3913   -0.3497 C.ar    1  UNL1        0.0100
     30 N          -4.2346   -2.9123   -0.5828 N.ar    1  UNL1       -0.3659
     31 C          -5.1823   -1.9199   -0.4947 C.ar    1  UNL1        0.0100
     32 C          -4.5058   -0.7604   -0.2211 C.ar    1  UNL1        0.0074
     33 H          -4.5827    3.5019    0.2026 H       1  UNL1        0.0356
     34 H          -4.7041    2.9112    1.9020 H       1  UNL1        0.0356
     35 H          -7.1274    2.8890    0.7734 H       1  UNL1        0.0575
     36 H          -7.2882    0.4199   -0.0827 H       1  UNL1        0.0621
     37 H          -2.1799    3.0840    1.3887 H       1  UNL1        0.0836
     38 H           1.9749    1.7190    1.4020 H       1  UNL1        0.0645
     39 H           3.8841   -0.7247    2.6564 H       1  UNL1        0.0624
     40 H           6.3058   -0.6417    3.0002 H       1  UNL1        0.0618
     41 H           7.9288    0.0633    1.1934 H       1  UNL1        0.0625
     42 H           7.7812    0.9779   -1.6533 H       1  UNL1        0.1035
     43 H           3.7182    0.8700   -2.2777 H       1  UNL1        0.1036
     44 H           3.4091   -2.3782   -1.0393 H       1  UNL1        0.0700
     45 H          -1.0068   -2.1578   -1.9949 H       1  UNL1        0.0700
     46 H          -2.1383   -3.0679   -0.2745 H       1  UNL1        0.0813
     47 H          -4.4351   -3.8937   -0.7279 H       1  UNL1        0.1648
     48 H          -6.2354   -2.1464   -0.5893 H       1  UNL1        0.0813
@<TRIPOS>BOND
     1     1     2    1
     2     2     3    2
     3     3     4    1
     4     4     5   ar
     5     5     6   ar
     6     6     7   ar
     7     7     8   ar
     8     8     9   ar
     9     9    10   ar
    10    10    11   ar
    11    11    12    1
    12    12    13   ar
    13    13    14   ar
    14    14    15   ar
    15    15    16   ar
    16    16    17   ar
    17    17    18   ar
    18    18    19   ar
    19    19    20   ar
    20    11    21   ar
    21    21    22   ar
    22    22    23   ar
    23    23    24   ar
    24    24    25   ar
    25    25    26   ar
    26    26    27   ar
    27    27    28   ar
    28    28    29   ar
    29    29    30   ar
    30    30    31   ar
    31    31    32   ar
    32     5     1    1
    33    27     6   ar
    34    32    28   ar
    35    32     4   ar
    36    26     9   ar
    37    20    12   ar
    38    25    21   ar
    39    20    16   ar
    40     1    33    1
    41     1    34    1
    42     2    35    1
    43     3    36    1
    44     7    37    1
    45    10    38    1
    46    13    39    1
    47    14    40    1
    48    15    41    1
    49    17    42    1
    50    19    43    1
    51    22    44    1
    52    24    45    1
    53    29    46    1
    54    30    47    1
    55    31    48    1
