@<TRIPOS>MOLECULE
*****
 39 45 0 0 0
SMALL
GASTEIGER

@<TRIPOS>ATOM
      1 C          -4.0372   -0.2717    2.4192 C.3     1  UNL1       -0.0080
      2 C          -5.4647   -0.1628    1.9253 C.2     1  UNL1       -0.0791
      3 C          -5.5498    0.0922    0.6098 C.2     1  UNL1       -0.0573
      4 C          -4.1934    0.1671    0.1301 C.ar    1  UNL1       -0.0130
      5 C          -3.2533   -0.0383    1.1481 C.ar    1  UNL1       -0.0267
      6 C          -1.8375   -0.0114    0.9598 C.ar    1  UNL1        0.0055
      7 C          -1.0003   -0.1692    2.0539 C.ar    1  UNL1        0.0363
      8 N           0.3500   -0.1596    2.0230 N.ar    1  UNL1       -0.2543
      9 C           0.9732   -0.0676    0.8521 C.ar    1  UNL1        0.0744
     10 C           2.3675   -0.1172    0.9482 C.ar    1  UNL1       -0.0228
     11 C           3.2788   -0.0986   -0.1286 C.ar    1  UNL1        0.0494
     12 C           4.7238   -0.1333    0.0492 C.ar    1  UNL1        0.1652
     13 N           5.4809    0.6140   -0.7565 N.ar    1  UNL1       -0.2159
     14 C           6.7867    0.5488   -0.5132 C.ar    1  UNL1        0.1200
     15 N           7.3688   -0.1580    0.4516 N.ar    1  UNL1       -0.2241
     16 C           6.5138   -0.8418    1.2064 C.ar    1  UNL1        0.1200
     17 N           5.1903   -0.8667    1.0665 N.ar    1  UNL1       -0.2159
     18 C           2.6600   -0.1035   -1.3991 C.ar    1  UNL1        0.1113
     19 N           3.2801   -0.1923   -2.5893 N.ar    1  UNL1       -0.1900
     20 S           2.1175   -0.2314   -3.7544 S.2     1  UNL1        0.1165
     21 N           0.7656   -0.1387   -2.8175 N.ar    1  UNL1       -0.1901
     22 C           1.1442   -0.0380   -1.5325 C.ar    1  UNL1        0.1103
     23 C           0.2661    0.0561   -0.3776 C.ar    1  UNL1        0.0369
     24 C          -1.1958    0.1832   -0.3169 C.ar    1  UNL1        0.0034
     25 C          -2.2003    0.4890   -1.3283 C.ar    1  UNL1       -0.0018
     26 C          -1.9553    0.9795   -2.5900 C.ar    1  UNL1       -0.0160
     27 S          -3.3846    1.2137   -3.5190 S.2     1  UNL1       -0.1038
     28 C          -4.3883    0.7803   -2.2037 C.ar    1  UNL1       -0.0160
     29 C          -3.6395    0.4609   -1.0983 C.ar    1  UNL1       -0.0029
     30 H          -3.8451   -1.2687    2.8262 H       1  UNL1        0.0356
     31 H          -3.8289    0.5029    3.1630 H       1  UNL1        0.0356
     32 H          -6.3182   -0.2775    2.5794 H       1  UNL1        0.0575
     33 H          -6.4416    0.2191    0.0196 H       1  UNL1        0.0621
     34 H          -1.3981   -0.3012    3.0580 H       1  UNL1        0.0836
     35 H           2.7867   -0.1783    1.9574 H       1  UNL1        0.0647
     36 H           7.4360    1.1287   -1.1602 H       1  UNL1        0.1048
     37 H           6.9339   -1.4334    2.0128 H       1  UNL1        0.1048
     38 H          -1.0286    1.2540   -3.0621 H       1  UNL1        0.0700
     39 H          -5.4634    0.8159   -2.3122 H       1  UNL1        0.0700
@<TRIPOS>BOND
     1     1     2    1
     2     2     3    2
     3     3     4    1
     4     4     5   ar
     5     5     6   ar
     6     6     7   ar
     7     7     8   ar
     8     8     9   ar
     9     9    10   ar
    10    10    11   ar
    11    11    12    1
    12    12    13   ar
    13    13    14   ar
    14    14    15   ar
    15    15    16   ar
    16    16    17   ar
    17    11    18   ar
    18    18    19   ar
    19    19    20   ar
    20    20    21   ar
    21    21    22   ar
    22    22    23   ar
    23    23    24   ar
    24    24    25   ar
    25    25    26   ar
    26    26    27   ar
    27    27    28   ar
    28    28    29   ar
    29     5     1    1
    30    24     6   ar
    31    29    25   ar
    32    29     4   ar
    33    23     9   ar
    34    17    12   ar
    35    22    18   ar
    36     1    30    1
    37     1    31    1
    38     2    32    1
    39     3    33    1
    40     7    34    1
    41    10    35    1
    42    14    36    1
    43    16    37    1
    44    26    38    1
    45    28    39    1
