@<TRIPOS>MOLECULE
*****
 36 41 0 0 0
SMALL
GASTEIGER

@<TRIPOS>ATOM
      1 C          -4.5455   -1.1839   -0.5737 C.3     1  UNL1       -0.0079
      2 C          -5.7899   -0.4764   -0.0826 C.2     1  UNL1       -0.0790
      3 C          -5.5213    0.6565    0.5856 C.2     1  UNL1       -0.0558
      4 C          -4.0832    0.7933    0.5929 C.ar    1  UNL1        0.0070
      5 C          -3.4562   -0.2639   -0.0766 C.ar    1  UNL1       -0.0252
      6 C          -2.0550   -0.3787   -0.2190 C.ar    1  UNL1        0.0070
      7 C          -1.4954   -1.4535   -0.8963 C.ar    1  UNL1        0.0363
      8 N          -0.1741   -1.6505   -1.0844 N.ar    1  UNL1       -0.2543
      9 C           0.6864   -0.7547   -0.5874 C.ar    1  UNL1        0.0722
     10 C           2.0371   -0.9983   -0.8026 C.ar    1  UNL1       -0.0275
     11 C           3.0436   -0.1446   -0.3353 C.ar    1  UNL1       -0.0093
     12 C           2.6571    0.9948    0.3650 C.ar    1  UNL1       -0.0528
     13 C           1.3028    1.2578    0.5923 C.ar    1  UNL1       -0.0513
     14 C           0.2803    0.3940    0.1257 C.ar    1  UNL1        0.0103
     15 C          -1.1407    0.5870    0.3152 C.ar    1  UNL1        0.0212
     16 C          -1.7781    1.7026    1.0202 C.ar    1  UNL1        0.1088
     17 N          -1.1708    2.7456    1.6160 N.ar    1  UNL1       -0.1901
     18 S          -2.3462    3.7151    2.2622 S.2     1  UNL1        0.1165
     19 N          -3.7087    2.8803    1.8300 N.ar    1  UNL1       -0.1902
     20 C          -3.2907    1.7974    1.1562 C.ar    1  UNL1        0.1079
     21 C           4.4549   -0.4499   -0.6064 C.ar    1  UNL1        0.0194
     22 C           5.0269   -0.9199   -1.7761 C.ar    1  UNL1       -0.0469
     23 C           6.4336   -1.1199   -1.6624 C.ar    1  UNL1       -0.0541
     24 C           6.8964   -0.8046   -0.4059 C.ar    1  UNL1       -0.0237
     25 S           5.6413   -0.2737    0.6245 S.2     1  UNL1       -0.0967
     26 H          -4.5440   -1.2479   -1.6657 H       1  UNL1        0.0356
     27 H          -4.4633   -2.1771   -0.1227 H       1  UNL1        0.0356
     28 H          -6.7871   -0.8563   -0.2592 H       1  UNL1        0.0575
     29 H          -6.2151    1.3470    1.0379 H       1  UNL1        0.0621
     30 H          -2.1118   -2.2349   -1.3350 H       1  UNL1        0.0836
     31 H           2.3077   -1.9007   -1.3484 H       1  UNL1        0.0645
     32 H           3.3965    1.7014    0.7361 H       1  UNL1        0.0624
     33 H           1.0672    2.1624    1.1449 H       1  UNL1        0.0624
     34 H           4.4617   -1.1059   -2.6818 H       1  UNL1        0.0629
     35 H           7.0711   -1.4775   -2.4616 H       1  UNL1        0.0623
     36 H           7.9122   -0.8621   -0.0399 H       1  UNL1        0.0693
@<TRIPOS>BOND
     1     1     2    1
     2     2     3    2
     3     3     4    1
     4     4     5   ar
     5     5     6   ar
     6     6     7   ar
     7     7     8   ar
     8     8     9   ar
     9     9    10   ar
    10    10    11   ar
    11    11    12   ar
    12    12    13   ar
    13    13    14   ar
    14    14    15   ar
    15    15    16   ar
    16    16    17   ar
    17    17    18   ar
    18    18    19   ar
    19    19    20   ar
    20    11    21    1
    21    21    22   ar
    22    22    23   ar
    23    23    24   ar
    24    24    25   ar
    25     5     1    1
    26    15     6   ar
    27    20    16   ar
    28    25    21   ar
    29    20     4   ar
    30    14     9   ar
    31     1    26    1
    32     1    27    1
    33     2    28    1
    34     3    29    1
    35     7    30    1
    36    10    31    1
    37    12    32    1
    38    13    33    1
    39    22    34    1
    40    23    35    1
    41    24    36    1
