@<TRIPOS>MOLECULE
*****
 43 49 0 0 0
SMALL
GASTEIGER

@<TRIPOS>ATOM
      1 C          -3.9773    0.3250    2.7699 C.3     1  UNL1        0.0000
      2 C          -5.3942    0.0530    2.3371 C.2     1  UNL1        0.0000
      3 C          -5.4365   -0.1442    1.0099 C.2     1  UNL1        0.0000
      4 C          -4.1038   -0.0295    0.4613 C.ar    1  UNL1        0.0000
      5 C          -3.2494    0.2416    1.4667 C.ar    1  UNL1        0.0000
      6 C          -1.8016    0.3870    1.2926 C.ar    1  UNL1        0.0000
      7 N          -1.1189    0.7160    2.4126 N.ar    1  UNL1        0.0000
      8 C           0.2263    0.7749    2.3157 C.ar    1  UNL1        0.0000
      9 C           0.9733    0.4257    1.1954 C.ar    1  UNL1        0.0000
     10 C           2.4173    0.4737    1.2775 C.ar    1  UNL1        0.0000
     11 C           3.3091    0.0603    0.2611 C.ar    1  UNL1        0.0000
     12 C           4.7498    0.1088    0.3787 C.ar    1  UNL1        0.0000
     13 C           5.6200    0.1547    1.4516 C.ar    1  UNL1        0.0000
     14 C           6.9290    0.2232    0.9146 C.ar    1  UNL1        0.0000
     15 C           6.7795    0.2262   -0.4508 C.ar    1  UNL1        0.0000
     16 O           5.4654    0.1622   -0.7835 O.2     1  UNL1        0.0000
     17 C           2.5927   -0.4667   -0.8111 C.ar    1  UNL1        0.0000
     18 C           3.0875   -1.1091   -1.9184 C.ar    1  UNL1        0.0000
     19 O           2.0601   -1.5984   -2.6679 O.2     1  UNL1        0.0000
     20 C           0.8996   -1.2630   -2.0347 C.ar    1  UNL1        0.0000
     21 C           1.1596   -0.5013   -0.9216 C.ar    1  UNL1        0.0000
     22 C           0.2286    0.0120    0.0357 C.ar    1  UNL1        0.0000
     23 C          -1.1989    0.1236    0.0406 C.ar    1  UNL1        0.0000
     24 C          -2.1279    0.0305   -1.1267 C.ar    1  UNL1        0.0000
     25 C          -1.8271    0.2370   -2.4263 C.2     1  UNL1        0.0000
     26 SI         -3.3286    0.0527   -3.5330 Si      1  UNL1        0.0000
     27 C          -4.3584   -0.1566   -1.9954 C.2     1  UNL1        0.0000
     28 C          -3.5938   -0.1051   -0.8871 C.ar    1  UNL1        0.0000
     29 H          -3.6364   -0.4368    3.4778 H       1  UNL1        0.0000
     30 H          -3.8946    1.3188    3.2206 H       1  UNL1        0.0000
     31 H          -6.2412    0.0271    3.0057 H       1  UNL1        0.0000
     32 H          -6.3191   -0.3547    0.4264 H       1  UNL1        0.0000
     33 H           0.7116    1.0925    3.2367 H       1  UNL1        0.0000
     34 H           2.8565    0.8516    2.2037 H       1  UNL1        0.0000
     35 H           5.3461    0.1350    2.4969 H       1  UNL1        0.0000
     36 H           7.8641    0.2682    1.4549 H       1  UNL1        0.0000
     37 H           7.4702    0.2698   -1.2814 H       1  UNL1        0.0000
     38 H           4.0769   -1.3398   -2.2880 H       1  UNL1        0.0000
     39 H           0.0105   -1.6677   -2.4944 H       1  UNL1        0.0000
     40 H          -0.8788    0.5045   -2.8611 H       1  UNL1        0.0000
     41 H          -3.6444    1.3016   -4.2662 H       1  UNL1        0.0000
     42 H          -3.2684   -1.1818   -4.3513 H       1  UNL1        0.0000
     43 H          -5.4345   -0.2027   -2.0449 H       1  UNL1        0.0000
@<TRIPOS>BOND
     1     1     2    1
     2     2     3    2
     3     3     4    1
     4     4     5   ar
     5     5     6   ar
     6     6     7   ar
     7     7     8   ar
     8     8     9   ar
     9     9    10   ar
    10    10    11   ar
    11    11    12    1
    12    12    13   ar
    13    13    14   ar
    14    14    15   ar
    15    15    16   ar
    16    11    17   ar
    17    17    18   ar
    18    18    19   ar
    19    19    20   ar
    20    20    21   ar
    21    21    22   ar
    22    22    23   ar
    23    23    24   ar
    24    24    25    2
    25    25    26    1
    26    26    27    1
    27    27    28    2
    28     5     1    1
    29    23     6   ar
    30    28    24   ar
    31    28     4   ar
    32    22     9   ar
    33    16    12   ar
    34    21    17   ar
    35     1    29    1
    36     1    30    1
    37     2    31    1
    38     3    32    1
    39     8    33    1
    40    10    34    1
    41    13    35    1
    42    14    36    1
    43    15    37    1
    44    18    38    1
    45    20    39    1
    46    25    40    1
    47    26    41    1
    48    26    42    1
    49    27    43    1
