@<TRIPOS>MOLECULE
*****
 41 46 0 0 0
SMALL
GASTEIGER

@<TRIPOS>ATOM
      1 C          -3.2193   -2.7279    0.8536 C.3     1  UNL1       -0.0051
      2 C          -4.7116   -2.5396    0.7795 C.2     1  UNL1       -0.0790
      3 C          -5.0574   -1.3321    0.3049 C.2     1  UNL1       -0.0572
      4 C          -3.8368   -0.5807    0.0097 C.ar    1  UNL1       -0.0106
      5 C          -2.7494   -1.4042    0.3334 C.ar    1  UNL1        0.0069
      6 C          -1.4738   -0.9109    0.1396 C.ar    1  UNL1        0.1409
      7 O          -0.3281   -1.5856    0.4049 O.2     1  UNL1       -0.4545
      8 C           0.7000   -0.7620    0.0806 C.ar    1  UNL1        0.1369
      9 C           2.0495   -1.0946    0.2107 C.ar    1  UNL1       -0.0110
     10 C           3.0018   -0.1320   -0.1645 C.ar    1  UNL1       -0.0129
     11 C           2.5531    1.1083   -0.6499 C.ar    1  UNL1       -0.0532
     12 C           1.1855    1.4148   -0.7718 C.ar    1  UNL1       -0.0498
     13 C           0.2249    0.4554   -0.3964 C.ar    1  UNL1        0.0285
     14 C          -1.2124    0.3651   -0.3618 C.ar    1  UNL1        0.0359
     15 C          -2.3366    1.2016   -0.6908 C.ar    1  UNL1       -0.0060
     16 C          -2.1584    2.5047   -1.2034 C.ar    1  UNL1       -0.0533
     17 C          -3.2535    3.3104   -1.5203 C.ar    1  UNL1       -0.0611
     18 C          -4.5457    2.8350   -1.3333 C.ar    1  UNL1       -0.0611
     19 C          -4.7505    1.5505   -0.8282 C.ar    1  UNL1       -0.0534
     20 C          -3.6653    0.7129   -0.4988 C.ar    1  UNL1       -0.0097
     21 C           4.4398   -0.4186   -0.0506 C.ar    1  UNL1        0.0003
     22 C           5.3143    0.4413    0.6265 C.ar    1  UNL1       -0.0512
     23 C           6.6719    0.1375    0.7174 C.ar    1  UNL1       -0.0430
     24 C           7.1254   -1.0276    0.1240 C.ar    1  UNL1        0.0276
     25 N           6.3264   -1.8876   -0.5395 N.ar    1  UNL1       -0.2627
     26 C           5.0116   -1.5631   -0.6099 C.ar    1  UNL1        0.0353
     27 H          -2.8918   -2.8899    1.8842 H       1  UNL1        0.0357
     28 H          -2.8917   -3.5482    0.2090 H       1  UNL1        0.0357
     29 H          -5.4152   -3.3034    1.0795 H       1  UNL1        0.0575
     30 H          -6.0601   -0.9646    0.1603 H       1  UNL1        0.0621
     31 H           2.3341   -2.0649    0.6041 H       1  UNL1        0.0660
     32 H           3.2767    1.8628   -0.9581 H       1  UNL1        0.0624
     33 H           0.8998    2.3872   -1.1568 H       1  UNL1        0.0625
     34 H          -1.1690    2.9146   -1.3651 H       1  UNL1        0.0624
     35 H          -3.0948    4.3111   -1.9142 H       1  UNL1        0.0618
     36 H          -5.3980    3.4628   -1.5804 H       1  UNL1        0.0618
     37 H          -5.7739    1.2091   -0.6941 H       1  UNL1        0.0624
     38 H           4.9412    1.3467    1.0995 H       1  UNL1        0.0625
     39 H           7.3570    0.7932    1.2429 H       1  UNL1        0.0633
     40 H           8.1736   -1.3086    0.1688 H       1  UNL1        0.0829
     41 H           4.4068   -2.2788   -1.1621 H       1  UNL1        0.0836
@<TRIPOS>BOND
     1     1     2    1
     2     2     3    2
     3     3     4    1
     4     4     5   ar
     5     5     6   ar
     6     6     7   ar
     7     7     8   ar
     8     8     9   ar
     9     9    10   ar
    10    10    11   ar
    11    11    12   ar
    12    12    13   ar
    13    13    14   ar
    14    14    15   ar
    15    15    16   ar
    16    16    17   ar
    17    17    18   ar
    18    18    19   ar
    19    19    20   ar
    20    10    21    1
    21    21    22   ar
    22    22    23   ar
    23    23    24   ar
    24    24    25   ar
    25    25    26   ar
    26     5     1    1
    27    14     6   ar
    28    20    15   ar
    29    26    21   ar
    30    20     4   ar
    31    13     8   ar
    32     1    27    1
    33     1    28    1
    34     2    29    1
    35     3    30    1
    36     9    31    1
    37    11    32    1
    38    12    33    1
    39    16    34    1
    40    17    35    1
    41    18    36    1
    42    19    37    1
    43    22    38    1
    44    23    39    1
    45    24    40    1
    46    26    41    1
