@<TRIPOS>MOLECULE
*****
 44 51 0 0 0
SMALL
GASTEIGER

@<TRIPOS>ATOM
      1 C           4.6335    2.6203    0.4949 C.3     1  UNL1       -0.0075
      2 C           6.0779    2.2544    0.7798 C.2     1  UNL1       -0.0791
      3 C           6.2950    0.9282    0.8047 C.2     1  UNL1       -0.0572
      4 C           5.0213    0.3106    0.5398 C.ar    1  UNL1       -0.0100
      5 C           4.0065    1.2522    0.3496 C.ar    1  UNL1       -0.0215
      6 C           2.6684    0.8742    0.0767 C.ar    1  UNL1        0.0253
      7 S           1.3364    1.9348   -0.1696 S.2     1  UNL1       -0.0878
      8 C           0.2210    0.6434   -0.4157 C.ar    1  UNL1        0.0233
      9 C          -1.1593    0.8019   -0.6862 C.ar    1  UNL1       -0.0375
     10 C          -2.0141   -0.2966   -0.8773 C.ar    1  UNL1        0.0120
     11 C          -3.4320   -0.1517   -1.1579 C.ar    1  UNL1       -0.0066
     12 C          -4.0939   -0.6733   -2.3048 C.ar    1  UNL1       -0.0533
     13 C          -5.4961   -0.5062   -2.5908 C.ar    1  UNL1       -0.0605
     14 C          -6.3958    0.1999   -1.7629 C.ar    1  UNL1       -0.0526
     15 C          -5.7381    0.6957   -0.6463 C.ar    1  UNL1       -0.0000
     16 C          -6.3174    1.4124    0.3682 C.ar    1  UNL1        0.0094
     17 N          -5.3224    1.6869    1.2816 N.ar    1  UNL1       -0.3659
     18 C          -4.1216    1.1551    0.8565 C.ar    1  UNL1        0.0100
     19 C          -4.3487    0.5385   -0.3516 C.ar    1  UNL1        0.0072
     20 C          -1.3866   -1.5635   -0.7968 C.ar    1  UNL1        0.1082
     21 N          -1.9916   -2.7609   -0.9571 N.ar    1  UNL1       -0.1901
     22 S          -0.8338   -3.9369   -0.7626 S.2     1  UNL1        0.1165
     23 N           0.5016   -2.9877   -0.4707 N.ar    1  UNL1       -0.1901
     24 C           0.0400   -1.7508   -0.5176 C.ar    1  UNL1        0.1093
     25 C           0.8672   -0.5815   -0.3142 C.ar    1  UNL1        0.0258
     26 C           2.2480   -0.4611   -0.0291 C.ar    1  UNL1        0.0101
     27 C           3.2979   -1.4609    0.1729 C.ar    1  UNL1        0.0293
     28 C           3.3405   -2.8240    0.1739 C.ar    1  UNL1        0.1000
     29 O           4.6277   -3.2312    0.4289 O.2     1  UNL1       -0.4698
     30 C           5.3902   -2.1090    0.5899 C.ar    1  UNL1        0.1000
     31 C           4.6072   -0.9933    0.4418 C.ar    1  UNL1        0.0279
     32 H           4.1961    3.1686    1.3340 H       1  UNL1        0.0356
     33 H           4.5508    3.1937   -0.4327 H       1  UNL1        0.0356
     34 H           6.8439    2.9997    0.9442 H       1  UNL1        0.0575
     35 H           7.2244    0.4143    0.9841 H       1  UNL1        0.0621
     36 H          -1.5720    1.8091   -0.7557 H       1  UNL1        0.0636
     37 H          -3.5071   -1.2435   -3.0274 H       1  UNL1        0.0624
     38 H          -5.8833   -0.9582   -3.5045 H       1  UNL1        0.0618
     39 H          -7.4468    0.3161   -1.9831 H       1  UNL1        0.0624
     40 H          -7.3320    1.7457    0.5384 H       1  UNL1        0.0813
     41 H          -5.4556    2.1951    2.1462 H       1  UNL1        0.1648
     42 H          -3.2346    1.2642    1.4652 H       1  UNL1        0.0813
     43 H           2.6518   -3.6399    0.0341 H       1  UNL1        0.1036
     44 H           6.4357   -2.2850    0.7995 H       1  UNL1        0.1036
@<TRIPOS>BOND
     1     1     2    1
     2     2     3    2
     3     3     4    1
     4     4     5   ar
     5     5     6   ar
     6     6     7   ar
     7     7     8   ar
     8     8     9   ar
     9     9    10   ar
    10    10    11    1
    11    11    12   ar
    12    12    13   ar
    13    13    14   ar
    14    14    15   ar
    15    15    16   ar
    16    16    17   ar
    17    17    18   ar
    18    18    19   ar
    19    10    20   ar
    20    20    21   ar
    21    21    22   ar
    22    22    23   ar
    23    23    24   ar
    24    24    25   ar
    25    25    26   ar
    26    26    27   ar
    27    27    28   ar
    28    28    29   ar
    29    29    30   ar
    30    30    31   ar
    31     5     1    1
    32    26     6   ar
    33    31    27   ar
    34    31     4   ar
    35    25     8   ar
    36    19    11   ar
    37    24    20   ar
    38    19    15   ar
    39     1    32    1
    40     1    33    1
    41     2    34    1
    42     3    35    1
    43     9    36    1
    44    12    37    1
    45    13    38    1
    46    14    39    1
    47    16    40    1
    48    17    41    1
    49    18    42    1
    50    28    43    1
    51    30    44    1
