@<TRIPOS>MOLECULE
*****
 46 53 0 0 0
SMALL
GASTEIGER

@<TRIPOS>ATOM
      1 SI         -1.6136    1.0841   -0.2322 Si      1  UNL1        0.0000
      2 C          -2.7295   -0.4675   -0.3741 C.2     1  UNL1        0.0000
      3 C          -1.9776   -1.5795   -0.1910 C.2     1  UNL1        0.0000
      4 C          -0.5624   -1.3204    0.0582 C.ar    1  UNL1        0.0000
      5 C          -0.0832    0.0182    0.0919 C.ar    1  UNL1        0.0000
      6 C           1.3168    0.3837    0.3339 C.ar    1  UNL1        0.0000
      7 C           1.9153    1.6770    0.3912 C.ar    1  UNL1        0.0000
      8 C           1.3110    2.9034    0.2306 C.ar    1  UNL1        0.0000
      9 N           2.2727    3.8813    0.3673 N.ar    1  UNL1        0.0000
     10 C           3.4926    3.3052    0.6145 C.ar    1  UNL1        0.0000
     11 C           3.3022    1.9432    0.6349 C.ar    1  UNL1        0.0000
     12 C           4.3034    0.9747    0.8579 C.ar    1  UNL1        0.0000
     13 C           5.6711    1.2412    1.0981 C.ar    1  UNL1        0.0000
     14 C           6.5364    0.1826    1.2998 C.ar    1  UNL1        0.0000
     15 C           6.0044   -1.0877    1.2538 C.ar    1  UNL1        0.0000
     16 N           4.6965   -1.3597    1.0248 N.ar    1  UNL1        0.0000
     17 C           3.8092   -0.3562    0.8213 C.ar    1  UNL1        0.0000
     18 C           2.3880   -0.6142    0.5710 C.ar    1  UNL1        0.0000
     19 C           1.8182   -1.9239    0.5196 C.ar    1  UNL1        0.0000
     20 C           2.4435   -3.1386    0.6836 C.ar    1  UNL1        0.0000
     21 O           1.5477   -4.1632    0.5608 O.2     1  UNL1        0.0000
     22 C           0.3274   -3.6085    0.3144 C.ar    1  UNL1        0.0000
     23 C           0.4424   -2.2439    0.2801 C.ar    1  UNL1        0.0000
     24 C          -4.1848   -0.4393   -0.6425 C.ar    1  UNL1        0.0000
     25 C          -4.9561   -1.6322   -0.7355 C.ar    1  UNL1        0.0000
     26 C          -6.3491   -1.6848   -0.9892 C.ar    1  UNL1        0.0000
     27 C          -7.1312   -0.5423   -1.1793 C.ar    1  UNL1        0.0000
     28 C          -6.4477    0.6906   -1.1040 C.ar    1  UNL1        0.0000
     29 N          -7.0240    1.8925   -1.2588 N.ar    1  UNL1        0.0000
     30 S          -5.8225    3.0160   -1.0839 S.2     1  UNL1        0.0000
     31 N          -4.5210    2.0344   -0.8050 N.ar    1  UNL1        0.0000
     32 C          -4.9512    0.7592   -0.8320 C.ar    1  UNL1        0.0000
     33 H          -1.9424    1.9161    0.9556 H       1  UNL1        0.0000
     34 H          -1.4879    1.8158   -1.5207 H       1  UNL1        0.0000
     35 H          -2.3379   -2.5974   -0.2159 H       1  UNL1        0.0000
     36 H           0.2990    3.2160    0.0322 H       1  UNL1        0.0000
     37 H           2.1011    4.8764    0.2954 H       1  UNL1        0.0000
     38 H           4.3691    3.9236    0.7502 H       1  UNL1        0.0000
     39 H           6.0479    2.2581    1.1259 H       1  UNL1        0.0000
     40 H           7.5916    0.3410    1.4870 H       1  UNL1        0.0000
     41 H           6.6327   -1.9614    1.4045 H       1  UNL1        0.0000
     42 H           3.4585   -3.4514    0.8826 H       1  UNL1        0.0000
     43 H          -0.4839   -4.3114    0.1940 H       1  UNL1        0.0000
     44 H          -4.4659   -2.5971   -0.6062 H       1  UNL1        0.0000
     45 H          -6.8314   -2.6617   -1.0380 H       1  UNL1        0.0000
     46 H          -8.1957   -0.5921   -1.3728 H       1  UNL1        0.0000
@<TRIPOS>BOND
     1     1     2    1
     2     2     3    2
     3     3     4    1
     4     4     5   ar
     5     5     6   ar
     6     6     7   ar
     7     7     8   ar
     8     8     9   ar
     9     9    10   ar
    10    10    11   ar
    11    11    12   ar
    12    12    13   ar
    13    13    14   ar
    14    14    15   ar
    15    15    16   ar
    16    16    17   ar
    17    17    18   ar
    18    18    19   ar
    19    19    20   ar
    20    20    21   ar
    21    21    22   ar
    22    22    23   ar
    23     2    24    1
    24    24    25   ar
    25    25    26   ar
    26    26    27   ar
    27    27    28   ar
    28    28    29   ar
    29    29    30   ar
    30    30    31   ar
    31    31    32   ar
    32     5     1    1
    33    18     6   ar
    34    23    19   ar
    35    32    24   ar
    36    23     4   ar
    37    32    28   ar
    38    11     7   ar
    39    17    12   ar
    40     1    33    1
    41     1    34    1
    42     3    35    1
    43     8    36    1
    44     9    37    1
    45    10    38    1
    46    13    39    1
    47    14    40    1
    48    15    41    1
    49    20    42    1
    50    22    43    1
    51    25    44    1
    52    26    45    1
    53    27    46    1
