@<TRIPOS>MOLECULE
*****
 46 53 0 0 0
SMALL
GASTEIGER

@<TRIPOS>ATOM
      1 SI          3.8739    2.8076   -1.8080 Si      1  UNL1        0.0000
      2 C           4.2913    1.2703   -0.8486 C.2     1  UNL1        0.0000
      3 C           3.1802    0.6048   -0.4643 C.ar    1  UNL1        0.0000
      4 C           3.1881   -0.7124    0.1994 C.ar    1  UNL1        0.0000
      5 C           1.9985   -1.2972    0.4655 C.ar    1  UNL1        0.0000
      6 C           0.7873   -0.6070    0.1464 C.ar    1  UNL1        0.0000
      7 S          -0.7185   -1.3450    0.4030 S.2     1  UNL1        0.0000
      8 C          -1.6342    0.0553   -0.0543 C.ar    1  UNL1        0.0000
      9 C          -0.7104    1.0675   -0.3468 C.ar    1  UNL1        0.0000
     10 C          -1.2314    2.4074   -0.5343 C.ar    1  UNL1        0.0000
     11 N          -0.4663    3.4828   -0.6352 N.ar    1  UNL1        0.0000
     12 S          -1.5448    4.7387   -0.7944 S.2     1  UNL1        0.0000
     13 N          -2.9786    3.9002   -0.7042 N.ar    1  UNL1        0.0000
     14 C          -2.6711    2.5958   -0.5219 C.ar    1  UNL1        0.0000
     15 C          -3.5878    1.5392   -0.3357 C.ar    1  UNL1        0.0000
     16 C          -5.0312    1.8390   -0.3385 C.ar    1  UNL1        0.0000
     17 C          -5.9381    0.8769   -0.1173 C.ar    1  UNL1        0.0000
     18 C          -5.5087   -0.4833    0.1078 C.ar    1  UNL1        0.0000
     19 C          -6.3742   -1.4964    0.3015 C.2     1  UNL1        0.0000
     20 SI         -5.4846   -3.1140    0.5020 Si      1  UNL1        0.0000
     21 C          -3.8748   -2.1792    0.2756 C.2     1  UNL1        0.0000
     22 C          -4.0628   -0.8518    0.1105 C.ar    1  UNL1        0.0000
     23 C          -3.0541    0.2386   -0.0995 C.ar    1  UNL1        0.0000
     24 C           0.6621    0.6653   -0.3974 C.ar    1  UNL1        0.0000
     25 C           1.8942    1.2928   -0.8225 C.ar    1  UNL1        0.0000
     26 C           2.0762    2.3766   -1.6015 C.2     1  UNL1        0.0000
     27 C           4.3476   -1.4668    0.5427 C.ar    1  UNL1        0.0000
     28 C           4.8514   -1.9652    1.7289 C.ar    1  UNL1        0.0000
     29 C           6.0469   -2.6633    1.4294 C.ar    1  UNL1        0.0000
     30 C           6.2383   -2.5830    0.0686 C.ar    1  UNL1        0.0000
     31 N           5.2007   -1.8607   -0.4619 N.ar    1  UNL1        0.0000
     32 H           4.2617    4.0481   -1.0953 H       1  UNL1        0.0000
     33 H           4.3203    2.7159   -3.2193 H       1  UNL1        0.0000
     34 H           5.3183    0.9797   -0.6944 H       1  UNL1        0.0000
     35 H           1.9445   -2.2797    0.9274 H       1  UNL1        0.0000
     36 H          -5.3512    2.8618   -0.5139 H       1  UNL1        0.0000
     37 H          -6.9987    1.1065   -0.1160 H       1  UNL1        0.0000
     38 H          -7.4509   -1.4389    0.3255 H       1  UNL1        0.0000
     39 H          -5.6218   -3.6784    1.8661 H       1  UNL1        0.0000
     40 H          -5.7499   -4.0547   -0.6128 H       1  UNL1        0.0000
     41 H          -2.9681   -2.7531    0.2886 H       1  UNL1        0.0000
     42 H           1.3335    2.9907   -2.0775 H       1  UNL1        0.0000
     43 H           4.4075   -1.8332    2.7074 H       1  UNL1        0.0000
     44 H           6.6955   -3.1710    2.1314 H       1  UNL1        0.0000
     45 H           7.0190   -2.9782   -0.5673 H       1  UNL1        0.0000
     46 H           5.0750   -1.6489   -1.4432 H       1  UNL1        0.0000
@<TRIPOS>BOND
     1     1     2    1
     2     2     3    2
     3     3     4   ar
     4     4     5   ar
     5     5     6   ar
     6     6     7   ar
     7     7     8   ar
     8     8     9   ar
     9     9    10   ar
    10    10    11   ar
    11    11    12   ar
    12    12    13   ar
    13    13    14   ar
    14    14    15   ar
    15    15    16   ar
    16    16    17   ar
    17    17    18   ar
    18    18    19    2
    19    19    20    1
    20    20    21    1
    21    21    22    2
    22    22    23   ar
    23     9    24   ar
    24    24    25   ar
    25    25    26    2
    26     4    27    1
    27    27    28   ar
    28    28    29   ar
    29    29    30   ar
    30    30    31   ar
    31    26     1    1
    32    31    27   ar
    33    25     3   ar
    34    24     6   ar
    35    23     8   ar
    36    14    10   ar
    37    23    15   ar
    38    22    18   ar
    39     1    32    1
    40     1    33    1
    41     2    34    1
    42     5    35    1
    43    16    36    1
    44    17    37    1
    45    19    38    1
    46    20    39    1
    47    20    40    1
    48    21    41    1
    49    26    42    1
    50    28    43    1
    51    29    44    1
    52    30    45    1
    53    31    46    1
