@<TRIPOS>MOLECULE
*****
 44 50 0 0 0
SMALL
GASTEIGER

@<TRIPOS>ATOM
      1 C          -5.0213    2.1952   -0.3218 C.3     1  UNL1       -0.0075
      2 C          -6.4253    1.7140   -0.6261 C.2     1  UNL1       -0.0791
      3 C          -6.5116    0.3795   -0.7592 C.2     1  UNL1       -0.0573
      4 C          -5.1792   -0.1382   -0.5549 C.ar    1  UNL1       -0.0125
      5 C          -4.2637    0.8883   -0.2942 C.ar    1  UNL1       -0.0216
      6 C          -2.8973    0.6251   -0.0630 C.ar    1  UNL1        0.0252
      7 S          -1.6534    1.7567    0.2656 S.2     1  UNL1       -0.0878
      8 C          -0.4423    0.5391    0.3817 C.ar    1  UNL1        0.0240
      9 C           0.9160    0.7670    0.6471 C.ar    1  UNL1       -0.0213
     10 C           1.7440   -0.3424    0.6971 C.ar    1  UNL1        0.0726
     11 N           1.2797   -1.5964    0.5322 N.ar    1  UNL1       -0.2543
     12 C          -0.0338   -1.8073    0.2754 C.ar    1  UNL1        0.0371
     13 C          -0.9528   -0.7501    0.1827 C.ar    1  UNL1        0.0157
     14 C          -2.3592   -0.6616   -0.0746 C.ar    1  UNL1        0.0069
     15 C          -3.2921   -1.7628   -0.3467 C.ar    1  UNL1       -0.0014
     16 C          -3.0270   -3.1006   -0.4198 C.ar    1  UNL1       -0.0160
     17 S          -4.4741   -3.9747   -0.7677 S.2     1  UNL1       -0.1038
     18 C          -5.4197   -2.5374   -0.8140 C.ar    1  UNL1       -0.0160
     19 C          -4.6584   -1.4171   -0.5709 C.ar    1  UNL1       -0.0028
     20 C           3.1832   -0.2247    0.9834 C.ar    1  UNL1        0.0081
     21 C           3.6609   -0.7710    2.1910 C.ar    1  UNL1       -0.0520
     22 C           4.9980   -0.6582    2.5556 C.ar    1  UNL1       -0.0605
     23 C           5.8872    0.0041    1.7168 C.ar    1  UNL1       -0.0540
     24 C           5.4593    0.5441    0.4954 C.ar    1  UNL1       -0.0173
     25 C           6.3815    1.1928   -0.3431 C.ar    1  UNL1       -0.0540
     26 C           5.9903    1.7174   -1.5737 C.ar    1  UNL1       -0.0612
     27 C           4.6709    1.5952   -1.9852 C.ar    1  UNL1       -0.0611
     28 C           3.7410    0.9572   -1.1607 C.ar    1  UNL1       -0.0534
     29 C           4.0997    0.4270    0.1037 C.ar    1  UNL1       -0.0087
     30 H          -4.9808    2.6971    0.6495 H       1  UNL1        0.0356
     31 H          -4.6511    2.8504   -1.1157 H       1  UNL1        0.0356
     32 H          -7.2627    2.3910   -0.7241 H       1  UNL1        0.0575
     33 H          -7.3920   -0.2022   -0.9754 H       1  UNL1        0.0621
     34 H           1.3005    1.7684    0.8079 H       1  UNL1        0.0650
     35 H          -0.2919   -2.8499    0.1572 H       1  UNL1        0.0836
     36 H          -2.1164   -3.6613   -0.3047 H       1  UNL1        0.0700
     37 H          -6.4790   -2.6087   -1.0183 H       1  UNL1        0.0700
     38 H           2.9720   -1.2911    2.8555 H       1  UNL1        0.0624
     39 H           5.3456   -1.0880    3.4906 H       1  UNL1        0.0618
     40 H           6.9293    0.0841    2.0192 H       1  UNL1        0.0624
     41 H           7.4234    1.2882   -0.0442 H       1  UNL1        0.0624
     42 H           6.7185    2.2110   -2.2120 H       1  UNL1        0.0618
     43 H           4.3611    1.9880   -2.9501 H       1  UNL1        0.0618
     44 H           2.7231    0.8625   -1.5325 H       1  UNL1        0.0624
@<TRIPOS>BOND
     1     1     2    1
     2     2     3    2
     3     3     4    1
     4     4     5   ar
     5     5     6   ar
     6     6     7   ar
     7     7     8   ar
     8     8     9   ar
     9     9    10   ar
    10    10    11   ar
    11    11    12   ar
    12    12    13   ar
    13    13    14   ar
    14    14    15   ar
    15    15    16   ar
    16    16    17   ar
    17    17    18   ar
    18    18    19   ar
    19    10    20    1
    20    20    21   ar
    21    21    22   ar
    22    22    23   ar
    23    23    24   ar
    24    24    25   ar
    25    25    26   ar
    26    26    27   ar
    27    27    28   ar
    28    28    29   ar
    29     5     1    1
    30    14     6   ar
    31    19    15   ar
    32    29    20   ar
    33    19     4   ar
    34    29    24   ar
    35    13     8   ar
    36     1    30    1
    37     1    31    1
    38     2    32    1
    39     3    33    1
    40     9    34    1
    41    12    35    1
    42    16    36    1
    43    18    37    1
    44    21    38    1
    45    22    39    1
    46    23    40    1
    47    25    41    1
    48    26    42    1
    49    27    43    1
    50    28    44    1
