@<TRIPOS>MOLECULE
*****
 43 49 0 0 0
SMALL
GASTEIGER

@<TRIPOS>ATOM
      1 C          -4.4002   -0.5063   -1.9959 C.3     1  UNL1       -0.0086
      2 C          -5.6884   -0.1584   -1.2721 C.2     1  UNL1       -0.0791
      3 C          -5.4921    0.3193   -0.0307 C.2     1  UNL1       -0.0573
      4 C          -4.0659    0.3287    0.1737 C.ar    1  UNL1       -0.0136
      5 C          -3.3744   -0.1497   -0.9555 C.ar    1  UNL1       -0.0353
      6 C          -1.9649   -0.2531   -1.0402 C.ar    1  UNL1       -0.0494
      7 C          -1.1073    0.1234    0.0346 C.ar    1  UNL1       -0.0088
      8 C           0.3522    0.0262   -0.0389 C.ar    1  UNL1       -0.0089
      9 C           1.0446    1.1020   -0.6029 C.ar    1  UNL1       -0.0436
     10 C           2.4432    1.0872   -0.7078 C.ar    1  UNL1        0.0115
     11 C           3.1341    2.2070   -1.2896 C.ar    1  UNL1        0.1076
     12 N           2.5845    3.3352   -1.7783 N.ar    1  UNL1       -0.1902
     13 S           3.8332    4.2823   -2.3203 S.2     1  UNL1        0.1165
     14 N           5.1312    3.3114   -1.9665 N.ar    1  UNL1       -0.1908
     15 C           4.6302    2.2011   -1.4043 C.ar    1  UNL1        0.1005
     16 C           5.3836    1.1042   -0.9471 C.ar    1  UNL1       -0.0329
     17 C           4.6459    0.0383   -0.3878 C.ar    1  UNL1       -0.0513
     18 C           3.2127   -0.0187   -0.2484 C.ar    1  UNL1       -0.0080
     19 C           2.5017   -1.1311    0.3296 C.ar    1  UNL1       -0.0095
     20 C           3.1578   -2.2905    0.8212 C.ar    1  UNL1       -0.0534
     21 C           2.4712   -3.3704    1.3806 C.ar    1  UNL1       -0.0611
     22 C           1.0935   -3.3329    1.4698 C.ar    1  UNL1       -0.0611
     23 C           0.4093   -2.2153    0.9998 C.ar    1  UNL1       -0.0534
     24 C           1.0757   -1.1026    0.4290 C.ar    1  UNL1       -0.0096
     25 C          -1.8100    0.6086    1.1673 C.ar    1  UNL1       -0.0026
     26 C          -1.2212    1.0404    2.3332 C.ar    1  UNL1       -0.0160
     27 S          -2.3917    1.5523    3.4864 S.2     1  UNL1       -0.1038
     28 C          -3.7042    1.2020    2.4316 C.ar    1  UNL1       -0.0160
     29 C          -3.2558    0.7067    1.2337 C.ar    1  UNL1       -0.0029
     30 H          -4.3657   -1.5721   -2.2385 H       1  UNL1        0.0356
     31 H          -4.2821    0.1040   -2.8956 H       1  UNL1        0.0356
     32 H          -6.6611   -0.2875   -1.7265 H       1  UNL1        0.0575
     33 H          -6.2363    0.6365    0.6799 H       1  UNL1        0.0621
     34 H          -1.5213   -0.6358   -1.9588 H       1  UNL1        0.0627
     35 H           0.4854    1.9667   -0.9619 H       1  UNL1        0.0631
     36 H           6.4641    1.0825   -1.0216 H       1  UNL1        0.0640
     37 H           5.2506   -0.7992   -0.0412 H       1  UNL1        0.0624
     38 H           4.2389   -2.3848    0.7808 H       1  UNL1        0.0624
     39 H           3.0194   -4.2358    1.7435 H       1  UNL1        0.0618
     40 H           0.5461   -4.1657    1.9027 H       1  UNL1        0.0618
     41 H          -0.6762   -2.2257    1.0889 H       1  UNL1        0.0624
     42 H          -0.1710    1.0879    2.5871 H       1  UNL1        0.0700
     43 H          -4.7191    1.3818    2.7571 H       1  UNL1        0.0700
@<TRIPOS>BOND
     1     1     2    1
     2     2     3    2
     3     3     4    1
     4     4     5   ar
     5     5     6   ar
     6     6     7   ar
     7     7     8    1
     8     8     9   ar
     9     9    10   ar
    10    10    11   ar
    11    11    12   ar
    12    12    13   ar
    13    13    14   ar
    14    14    15   ar
    15    15    16   ar
    16    16    17   ar
    17    17    18   ar
    18    18    19   ar
    19    19    20   ar
    20    20    21   ar
    21    21    22   ar
    22    22    23   ar
    23    23    24   ar
    24     7    25   ar
    25    25    26   ar
    26    26    27   ar
    27    27    28   ar
    28    28    29   ar
    29     5     1    1
    30    24     8   ar
    31    29    25   ar
    32    29     4   ar
    33    18    10   ar
    34    24    19   ar
    35    15    11   ar
    36     1    30    1
    37     1    31    1
    38     2    32    1
    39     3    33    1
    40     6    34    1
    41     9    35    1
    42    16    36    1
    43    17    37    1
    44    20    38    1
    45    21    39    1
    46    22    40    1
    47    23    41    1
    48    26    42    1
    49    28    43    1
