@<TRIPOS>MOLECULE
*****
 43 49 0 0 0
SMALL
GASTEIGER

@<TRIPOS>ATOM
      1 C           6.9492    0.0906    1.2676 C.3     1  UNL1        0.0000
      2 C           5.9794    0.4819    2.3754 C.2     1  UNL1        0.0000
      3 C           4.6958    0.3946    1.9594 C.2     1  UNL1        0.0000
      4 C           4.6480   -0.0401    0.6019 C.ar    1  UNL1        0.0000
      5 C           5.9911   -0.2268    0.1725 C.ar    1  UNL1        0.0000
      6 C           6.0854   -0.6458   -1.1204 C.ar    1  UNL1        0.0000
      7 S           4.5238   -0.8092   -1.8046 S.2     1  UNL1        0.0000
      8 C           3.6735   -0.3074   -0.3398 C.ar    1  UNL1        0.0000
      9 C           2.2422   -0.2510   -0.3263 C.2     1  UNL1        0.0000
     10 C           1.4360   -0.5575   -1.3690 C.2     1  UNL1        0.0000
     11 C           0.0045   -0.4154   -1.0913 C.ar    1  UNL1        0.0000
     12 C          -0.4011    0.0170    0.2041 C.ar    1  UNL1        0.0000
     13 SI          1.2204    0.2689    1.1707 Si      1  UNL1        0.0000
     14 C          -1.7662    0.2047    0.6303 C.ar    1  UNL1        0.0000
     15 C          -2.0664    0.6350    1.9312 C.ar    1  UNL1        0.0000
     16 C          -3.3793    0.8215    2.3591 C.ar    1  UNL1        0.0000
     17 C          -4.4549    0.5847    1.5006 C.ar    1  UNL1        0.0000
     18 C          -5.7656    0.7812    1.9596 C.ar    1  UNL1        0.0000
     19 C          -6.8408    0.5497    1.1174 C.ar    1  UNL1        0.0000
     20 C          -6.5630    0.1273   -0.1615 C.ar    1  UNL1        0.0000
     21 N          -5.3113   -0.0700   -0.6295 N.ar    1  UNL1        0.0000
     22 C          -4.2414    0.1497    0.1752 C.ar    1  UNL1        0.0000
     23 C          -2.8866   -0.0389   -0.2543 C.ar    1  UNL1        0.0000
     24 C          -2.4517   -0.4760   -1.5608 C.ar    1  UNL1        0.0000
     25 C          -3.2874   -0.7841   -2.6126 C.ar    1  UNL1        0.0000
     26 S          -2.4354   -1.2697   -4.0216 S.2     1  UNL1        0.0000
     27 C          -0.9193   -1.0769   -3.2497 C.ar    1  UNL1        0.0000
     28 C          -1.0633   -0.6526   -1.9497 C.ar    1  UNL1        0.0000
     29 H           7.5411   -0.7822    1.5567 H       1  UNL1        0.0000
     30 H           7.6029    0.9276    1.0070 H       1  UNL1        0.0000
     31 H           6.2943    0.7876    3.3621 H       1  UNL1        0.0000
     32 H           3.8482    0.6262    2.5849 H       1  UNL1        0.0000
     33 H           6.9702   -0.8646   -1.7013 H       1  UNL1        0.0000
     34 H           1.7710   -0.8838   -2.3433 H       1  UNL1        0.0000
     35 H           1.4171    1.6919    1.5529 H       1  UNL1        0.0000
     36 H           1.3302   -0.6735    2.3150 H       1  UNL1        0.0000
     37 H          -1.2821    0.8395    2.6560 H       1  UNL1        0.0000
     38 H          -3.5514    1.1569    3.3803 H       1  UNL1        0.0000
     39 H          -5.9547    1.1160    2.9768 H       1  UNL1        0.0000
     40 H          -7.8617    0.6948    1.4499 H       1  UNL1        0.0000
     41 H          -7.3587   -0.0725   -0.8733 H       1  UNL1        0.0000
     42 H          -4.3656   -0.7603   -2.6620 H       1  UNL1        0.0000
     43 H          -0.0167   -1.2891   -3.8046 H       1  UNL1        0.0000
@<TRIPOS>BOND
     1     1     2    1
     2     2     3    2
     3     3     4    1
     4     4     5   ar
     5     5     6   ar
     6     6     7   ar
     7     7     8   ar
     8     8     9    1
     9     9    10    2
    10    10    11    1
    11    11    12   ar
    12    12    13    1
    13    12    14   ar
    14    14    15   ar
    15    15    16   ar
    16    16    17   ar
    17    17    18   ar
    18    18    19   ar
    19    19    20   ar
    20    20    21   ar
    21    21    22   ar
    22    22    23   ar
    23    23    24   ar
    24    24    25   ar
    25    25    26   ar
    26    26    27   ar
    27    27    28   ar
    28     5     1    1
    29    13     9    1
    30    23    14   ar
    31    28    24   ar
    32     8     4   ar
    33    28    11   ar
    34    22    17   ar
    35     1    29    1
    36     1    30    1
    37     2    31    1
    38     3    32    1
    39     6    33    1
    40    10    34    1
    41    13    35    1
    42    13    36    1
    43    15    37    1
    44    16    38    1
    45    18    39    1
    46    19    40    1
    47    20    41    1
    48    25    42    1
    49    27    43    1
