@<TRIPOS>MOLECULE
*****
 47 54 0 0 0
SMALL
GASTEIGER

@<TRIPOS>ATOM
      1 C          -7.2467    0.6761   -0.0854 C.3     1  UNL1       -0.0081
      2 C          -6.4565    1.9049    0.3663 C.2     1  UNL1       -0.0791
      3 C          -5.1239    1.6944    0.2717 C.2     1  UNL1       -0.0569
      4 C          -4.8819    0.3850   -0.2267 C.ar    1  UNL1       -0.0074
      5 C          -6.1321   -0.2485   -0.4370 C.ar    1  UNL1       -0.0289
      6 C          -6.0028   -1.5299   -0.8901 C.ar    1  UNL1       -0.0197
      7 S          -4.3377   -1.9451   -1.0418 S.2     1  UNL1       -0.0961
      8 C          -3.7769   -0.3749   -0.5192 C.ar    1  UNL1        0.0231
      9 C          -2.3753   -0.1141   -0.4566 C.2     1  UNL1       -0.0282
     10 C          -1.8853    1.1214   -0.6766 C.2     1  UNL1       -0.0491
     11 C          -0.4577    1.0281   -0.5407 C.ar    1  UNL1       -0.0099
     12 C          -0.0046   -0.2612   -0.2371 C.ar    1  UNL1       -0.0269
     13 C          -1.2495   -1.1127   -0.1647 C.3     1  UNL1       -0.0002
     14 C           1.3996   -0.6088   -0.0443 C.ar    1  UNL1       -0.0043
     15 C           1.9159   -1.8947    0.3111 C.ar    1  UNL1       -0.0023
     16 C           1.1414   -3.0122    0.5388 C.ar    1  UNL1       -0.0160
     17 S           2.0571   -4.3942    0.9700 S.2     1  UNL1       -0.1038
     18 C           3.5203   -3.5222    0.8530 C.ar    1  UNL1       -0.0160
     19 C           3.3206   -2.2050    0.4950 C.ar    1  UNL1       -0.0026
     20 C           4.3922   -1.2917    0.3100 C.ar    1  UNL1       -0.0091
     21 C           5.7678   -1.6238    0.4651 C.ar    1  UNL1       -0.0534
     22 C           6.7569   -0.6891    0.1989 C.ar    1  UNL1       -0.0611
     23 C           6.3884    0.5671   -0.2449 C.ar    1  UNL1       -0.0611
     24 C           5.0319    0.8965   -0.3884 C.ar    1  UNL1       -0.0534
     25 C           3.9648    0.0142   -0.0812 C.ar    1  UNL1       -0.0089
     26 C           2.5141    0.3623   -0.1856 C.ar    1  UNL1        0.0015
     27 C           1.9421    1.6687   -0.4256 C.ar    1  UNL1        0.0287
     28 C           2.5419    2.9083   -0.4480 C.ar    1  UNL1        0.1000
     29 O           1.6284    3.8955   -0.6979 O.2     1  UNL1       -0.4698
     30 C           0.4063    3.3051   -0.7929 C.ar    1  UNL1        0.1000
     31 C           0.5463    1.9593   -0.5993 C.ar    1  UNL1        0.0279
     32 H          -7.8703    0.9109   -0.9524 H       1  UNL1        0.0356
     33 H          -7.8579    0.2842    0.7323 H       1  UNL1        0.0356
     34 H          -6.9195    2.8129    0.7227 H       1  UNL1        0.0575
     35 H          -4.3579    2.4047    0.5471 H       1  UNL1        0.0621
     36 H          -6.7737   -2.2482   -1.1312 H       1  UNL1        0.0696
     37 H          -2.4204    2.0218   -0.9266 H       1  UNL1        0.0627
     38 H          -1.2245   -1.8956   -0.9288 H       1  UNL1        0.0362
     39 H          -1.3849   -1.5267    0.8393 H       1  UNL1        0.0362
     40 H           0.0755   -3.1483    0.4921 H       1  UNL1        0.0700
     41 H           4.4419   -4.0479    1.0543 H       1  UNL1        0.0700
     42 H           6.0772   -2.6151    0.7816 H       1  UNL1        0.0624
     43 H           7.8055   -0.9489    0.3115 H       1  UNL1        0.0618
     44 H           7.1510    1.3001   -0.4976 H       1  UNL1        0.0618
     45 H           4.8411    1.8745   -0.8089 H       1  UNL1        0.0624
     46 H           3.5374    3.2907   -0.2912 H       1  UNL1        0.1036
     47 H          -0.4255    3.9723   -0.9676 H       1  UNL1        0.1036
@<TRIPOS>BOND
     1     1     2    1
     2     2     3    2
     3     3     4    1
     4     4     5   ar
     5     5     6   ar
     6     6     7   ar
     7     7     8   ar
     8     8     9    1
     9     9    10    2
    10    10    11    1
    11    11    12   ar
    12    12    13    1
    13    12    14   ar
    14    14    15   ar
    15    15    16   ar
    16    16    17   ar
    17    17    18   ar
    18    18    19   ar
    19    19    20   ar
    20    20    21   ar
    21    21    22   ar
    22    22    23   ar
    23    23    24   ar
    24    24    25   ar
    25    25    26   ar
    26    26    27   ar
    27    27    28   ar
    28    28    29   ar
    29    29    30   ar
    30    30    31   ar
    31     5     1    1
    32    13     9    1
    33    26    14   ar
    34    31    27   ar
    35     8     4   ar
    36    31    11   ar
    37    19    15   ar
    38    25    20   ar
    39     1    32    1
    40     1    33    1
    41     2    34    1
    42     3    35    1
    43     6    36    1
    44    10    37    1
    45    13    38    1
    46    13    39    1
    47    16    40    1
    48    18    41    1
    49    21    42    1
    50    22    43    1
    51    23    44    1
    52    24    45    1
    53    28    46    1
    54    30    47    1
