@<TRIPOS>MOLECULE
*****
 35 39 0 0 0
SMALL
GASTEIGER

@<TRIPOS>ATOM
      1 C           5.7192    0.2923   -0.1463 C.3     1  UNL1       -0.0081
      2 C           5.0439    1.5652    0.3625 C.2     1  UNL1       -0.0791
      3 C           3.6971    1.4426    0.3580 C.2     1  UNL1       -0.0569
      4 C           3.3342    0.1541   -0.1242 C.ar    1  UNL1       -0.0074
      5 C           4.5250   -0.5512   -0.4318 C.ar    1  UNL1       -0.0289
      6 C           4.2841   -1.8076   -0.9055 C.ar    1  UNL1       -0.0197
      7 S           2.5914   -2.1063   -0.9667 S.2     1  UNL1       -0.0961
      8 C           2.1594   -0.5254   -0.3476 C.ar    1  UNL1        0.0231
      9 C           0.8006   -0.1125   -0.1468 C.2     1  UNL1       -0.0282
     10 C          -0.2585   -0.9054   -0.4181 C.2     1  UNL1       -0.0492
     11 C          -1.4990   -0.1980   -0.1081 C.ar    1  UNL1       -0.0135
     12 C          -1.1616    1.0735    0.3693 C.ar    1  UNL1       -0.0353
     13 C           0.3258    1.2339    0.3846 C.3     1  UNL1       -0.0008
     14 C          -2.1281    1.9855    0.7493 C.ar    1  UNL1       -0.0571
     15 C          -3.4670    1.6044    0.6446 C.ar    1  UNL1       -0.0537
     16 C          -3.8360    0.3269    0.1658 C.ar    1  UNL1       -0.0173
     17 C          -5.1881   -0.0391    0.0673 C.ar    1  UNL1       -0.0540
     18 C          -5.5591   -1.2992   -0.4048 C.ar    1  UNL1       -0.0612
     19 C          -4.5834   -2.2138   -0.7859 C.ar    1  UNL1       -0.0611
     20 C          -3.2335   -1.8707   -0.6961 C.ar    1  UNL1       -0.0535
     21 C          -2.8370   -0.6027   -0.2219 C.ar    1  UNL1       -0.0105
     22 H           6.3008    0.4944   -1.0500 H       1  UNL1        0.0356
     23 H           6.3536   -0.1483    0.6277 H       1  UNL1        0.0356
     24 H           5.5884    2.4415    0.6811 H       1  UNL1        0.0575
     25 H           3.0049    2.2090    0.6733 H       1  UNL1        0.0621
     26 H           4.9893   -2.5648   -1.2177 H       1  UNL1        0.0696
     27 H          -0.2485   -1.9116   -0.8046 H       1  UNL1        0.0627
     28 H           0.6853    1.4033    1.4044 H       1  UNL1        0.0362
     29 H           0.6330    2.0489   -0.2782 H       1  UNL1        0.0362
     30 H          -1.8601    2.9698    1.1186 H       1  UNL1        0.0621
     31 H          -4.2356    2.3157    0.9413 H       1  UNL1        0.0624
     32 H          -5.9687    0.6599    0.3597 H       1  UNL1        0.0624
     33 H          -6.6107   -1.5648   -0.4741 H       1  UNL1        0.0618
     34 H          -4.8703   -3.1955   -1.1537 H       1  UNL1        0.0618
     35 H          -2.4910   -2.6037   -1.0004 H       1  UNL1        0.0624
@<TRIPOS>BOND
     1     1     2    1
     2     2     3    2
     3     3     4    1
     4     4     5   ar
     5     5     6   ar
     6     6     7   ar
     7     7     8   ar
     8     8     9    1
     9     9    10    2
    10    10    11    1
    11    11    12   ar
    12    12    13    1
    13    12    14   ar
    14    14    15   ar
    15    15    16   ar
    16    16    17   ar
    17    17    18   ar
    18    18    19   ar
    19    19    20   ar
    20    20    21   ar
    21     5     1    1
    22    13     9    1
    23    21    16   ar
    24     8     4   ar
    25    21    11   ar
    26     1    22    1
    27     1    23    1
    28     2    24    1
    29     3    25    1
    30     6    26    1
    31    10    27    1
    32    13    28    1
    33    13    29    1
    34    14    30    1
    35    15    31    1
    36    17    32    1
    37    18    33    1
    38    19    34    1
    39    20    35    1
