@<TRIPOS>MOLECULE
*****
 44 50 0 0 0
SMALL
GASTEIGER

@<TRIPOS>ATOM
      1 C           7.9879   -0.0005    0.2565 C.3     1  UNL1        0.0000
      2 C           7.4390   -0.6226   -1.0223 C.2     1  UNL1        0.0000
      3 C           6.0869   -0.6064   -1.0359 C.2     1  UNL1        0.0000
      4 C           5.5936   -0.0079    0.1593 C.ar    1  UNL1        0.0000
      5 C           6.7179    0.3614    0.9459 C.ar    1  UNL1        0.0000
      6 C           6.3712    0.9496    2.1251 C.ar    1  UNL1        0.0000
      7 S           4.6650    1.0445    2.2585 S.2     1  UNL1        0.0000
      8 C           4.3580    0.2809    0.7019 C.ar    1  UNL1        0.0000
      9 C           3.0244    0.0711    0.2319 C.2     1  UNL1        0.0000
     10 C           2.6769   -0.5044   -0.9453 C.2     1  UNL1        0.0000
     11 C           1.2657   -0.5752   -1.1349 C.ar    1  UNL1        0.0000
     12 S           0.4298   -1.2148   -2.4574 S.2     1  UNL1        0.0000
     13 C          -1.1119   -0.8380   -1.7432 C.ar    1  UNL1        0.0000
     14 C          -2.3792   -1.0909   -2.2951 C.ar    1  UNL1        0.0000
     15 C          -3.5375   -0.7241   -1.5887 C.ar    1  UNL1        0.0000
     16 C          -4.7847   -0.9873   -2.1603 C.ar    1  UNL1        0.0000
     17 C          -5.9620   -0.6443   -1.5024 C.ar    1  UNL1        0.0000
     18 C          -5.9265   -0.0266   -0.2512 C.ar    1  UNL1        0.0000
     19 C          -7.1329    0.3076    0.3879 C.ar    1  UNL1        0.0000
     20 C          -7.1384    0.9242    1.6357 C.ar    1  UNL1        0.0000
     21 C          -5.9348    1.2138    2.2591 C.ar    1  UNL1        0.0000
     22 C          -4.7283    0.8858    1.6327 C.ar    1  UNL1        0.0000
     23 C          -4.6791    0.2571    0.3618 C.ar    1  UNL1        0.0000
     24 C          -3.4606   -0.0997   -0.3224 C.ar    1  UNL1        0.0000
     25 C          -2.1610    0.1376    0.1987 C.ar    1  UNL1        0.0000
     26 C          -0.9797   -0.2233   -0.4945 C.ar    1  UNL1        0.0000
     27 C           0.3866   -0.0964   -0.1939 C.ar    1  UNL1        0.0000
     28 SI          1.4204    0.5836    1.2168 Si      1  UNL1        0.0000
     29 H           8.5952    0.8808    0.0326 H       1  UNL1        0.0000
     30 H           8.5678   -0.7304    0.8281 H       1  UNL1        0.0000
     31 H           8.0639   -1.0211   -1.8077 H       1  UNL1        0.0000
     32 H           5.4863   -0.9949   -1.8432 H       1  UNL1        0.0000
     33 H           7.0110    1.3265    2.9105 H       1  UNL1        0.0000
     34 H           3.3542   -0.8848   -1.6933 H       1  UNL1        0.0000
     35 H          -2.4501   -1.5705   -3.2683 H       1  UNL1        0.0000
     36 H          -4.8570   -1.4675   -3.1345 H       1  UNL1        0.0000
     37 H          -6.9120   -0.8674   -1.9835 H       1  UNL1        0.0000
     38 H          -8.0868    0.0873   -0.0873 H       1  UNL1        0.0000
     39 H          -8.0795    1.1761    2.1164 H       1  UNL1        0.0000
     40 H          -5.9271    1.6952    3.2335 H       1  UNL1        0.0000
     41 H          -3.8163    1.1358    2.1668 H       1  UNL1        0.0000
     42 H          -2.0397    0.6134    1.1659 H       1  UNL1        0.0000
     43 H           1.2736   -0.1917    2.4765 H       1  UNL1        0.0000
     44 H           1.3102    2.0584    1.3651 H       1  UNL1        0.0000
@<TRIPOS>BOND
     1     1     2    1
     2     2     3    2
     3     3     4    1
     4     4     5   ar
     5     5     6   ar
     6     6     7   ar
     7     7     8   ar
     8     8     9    1
     9     9    10    2
    10    10    11    1
    11    11    12   ar
    12    12    13   ar
    13    13    14   ar
    14    14    15   ar
    15    15    16   ar
    16    16    17   ar
    17    17    18   ar
    18    18    19   ar
    19    19    20   ar
    20    20    21   ar
    21    21    22   ar
    22    22    23   ar
    23    23    24   ar
    24    24    25   ar
    25    25    26   ar
    26    26    27   ar
    27    27    28    1
    28     5     1    1
    29    28     9    1
    30     8     4   ar
    31    27    11   ar
    32    26    13   ar
    33    24    15   ar
    34    23    18   ar
    35     1    29    1
    36     1    30    1
    37     2    31    1
    38     3    32    1
    39     6    33    1
    40    10    34    1
    41    14    35    1
    42    16    36    1
    43    17    37    1
    44    19    38    1
    45    20    39    1
    46    21    40    1
    47    22    41    1
    48    25    42    1
    49    28    43    1
    50    28    44    1
