@<TRIPOS>MOLECULE
*****
 50 57 0 0 0
SMALL
GASTEIGER

@<TRIPOS>ATOM
      1 C           6.9736    1.0553   -1.0865 C.3     1  UNL1        0.0000
      2 C           6.1654    0.1831   -2.0527 C.2     1  UNL1        0.0000
      3 C           4.8845    0.0482   -1.6395 C.2     1  UNL1        0.0000
      4 C           4.7042    0.7676   -0.4294 C.ar    1  UNL1        0.0000
      5 C           5.9291    1.3782   -0.0733 C.ar    1  UNL1        0.0000
      6 C           5.8384    2.0913    1.0891 C.ar    1  UNL1        0.0000
      7 S           4.2364    1.9960    1.7312 S.2     1  UNL1        0.0000
      8 C           3.6621    0.9929    0.4288 C.ar    1  UNL1        0.0000
      9 C           2.3084    0.5333    0.3957 C.ar    1  UNL1        0.0000
     10 C           1.3739    1.4211   -0.0262 C.ar    1  UNL1        0.0000
     11 C           0.0244    0.9852   -0.0652 C.ar    1  UNL1        0.0000
     12 N          -0.9794    1.7784   -0.5216 N.ar    1  UNL1        0.0000
     13 C          -2.1843    1.1179   -0.3991 C.ar    1  UNL1        0.0000
     14 C          -3.4680    1.4998   -0.7830 C.ar    1  UNL1        0.0000
     15 SI         -3.9702    3.0299   -1.6941 Si      1  UNL1        0.0000
     16 C          -5.7307    2.4143   -1.6381 C.2     1  UNL1        0.0000
     17 C          -5.8511    1.2319   -1.0065 C.2     1  UNL1        0.0000
     18 C          -4.5755    0.6704   -0.4927 C.ar    1  UNL1        0.0000
     19 C          -4.4103   -0.5102    0.2493 C.ar    1  UNL1        0.0000
     20 C          -5.4937   -1.3340    0.6337 C.ar    1  UNL1        0.0000
     21 C          -5.3114   -2.4545    1.4447 C.ar    1  UNL1        0.0000
     22 C          -4.0445   -2.7656    1.9128 C.ar    1  UNL1        0.0000
     23 C          -2.9539   -1.9812    1.5358 C.ar    1  UNL1        0.0000
     24 C          -3.0952   -0.8804    0.6636 C.ar    1  UNL1        0.0000
     25 C          -1.9454   -0.1107    0.2510 C.ar    1  UNL1        0.0000
     26 C          -0.5135   -0.2368    0.2953 C.ar    1  UNL1        0.0000
     27 C           0.4352   -1.2656    0.6196 C.ar    1  UNL1        0.0000
     28 C           0.2451   -2.5941    0.7299 C.2     1  UNL1        0.0000
     29 SI          1.8290   -3.4841    1.1449 Si      1  UNL1        0.0000
     30 C           2.7244   -1.8601    1.0105 C.2     1  UNL1        0.0000
     31 C           1.8793   -0.8511    0.7067 C.ar    1  UNL1        0.0000
     32 H           7.8016    0.4889   -0.6516 H       1  UNL1        0.0000
     33 H           7.3440    1.9525   -1.5899 H       1  UNL1        0.0000
     34 H           6.5810   -0.2602   -2.9453 H       1  UNL1        0.0000
     35 H           4.1098   -0.5161   -2.1399 H       1  UNL1        0.0000
     36 H           6.6020    2.6567    1.6044 H       1  UNL1        0.0000
     37 H           1.6351    2.4376   -0.3045 H       1  UNL1        0.0000
     38 H          -0.8647    2.7092   -0.8960 H       1  UNL1        0.0000
     39 H          -3.4248    3.0927   -3.0731 H       1  UNL1        0.0000
     40 H          -3.7640    4.2689   -0.9030 H       1  UNL1        0.0000
     41 H          -6.5348    2.9820   -2.0802 H       1  UNL1        0.0000
     42 H          -6.7959    0.7234   -0.8790 H       1  UNL1        0.0000
     43 H          -6.5076   -1.1009    0.3210 H       1  UNL1        0.0000
     44 H          -6.1652   -3.0613    1.7335 H       1  UNL1        0.0000
     45 H          -3.9010   -3.6081    2.5839 H       1  UNL1        0.0000
     46 H          -1.9940   -2.2076    1.9847 H       1  UNL1        0.0000
     47 H          -0.6649   -3.1483    0.5807 H       1  UNL1        0.0000
     48 H           2.2326   -4.4433    0.0885 H       1  UNL1        0.0000
     49 H           1.8273   -4.0258    2.5252 H       1  UNL1        0.0000
     50 H           3.7975   -1.8065    1.1059 H       1  UNL1        0.0000
@<TRIPOS>BOND
     1     1     2    1
     2     2     3    2
     3     3     4    1
     4     4     5   ar
     5     5     6   ar
     6     6     7   ar
     7     7     8   ar
     8     8     9    1
     9     9    10   ar
    10    10    11   ar
    11    11    12   ar
    12    12    13   ar
    13    13    14   ar
    14    14    15    1
    15    15    16    1
    16    16    17    2
    17    17    18    1
    18    18    19   ar
    19    19    20   ar
    20    20    21   ar
    21    21    22   ar
    22    22    23   ar
    23    23    24   ar
    24    24    25   ar
    25    25    26   ar
    26    26    27   ar
    27    27    28    2
    28    28    29    1
    29    29    30    1
    30    30    31    2
    31     5     1    1
    32    31     9   ar
    33     8     4   ar
    34    26    11   ar
    35    31    27   ar
    36    25    13   ar
    37    18    14   ar
    38    24    19   ar
    39     1    32    1
    40     1    33    1
    41     2    34    1
    42     3    35    1
    43     6    36    1
    44    10    37    1
    45    12    38    1
    46    15    39    1
    47    15    40    1
    48    16    41    1
    49    17    42    1
    50    20    43    1
    51    21    44    1
    52    22    45    1
    53    23    46    1
    54    28    47    1
    55    29    48    1
    56    29    49    1
    57    30    50    1
