@<TRIPOS>MOLECULE
*****
 43 50 0 0 0
SMALL
GASTEIGER

@<TRIPOS>ATOM
      1 C          -6.6556    0.4237    1.0095 C.3     1  UNL1       -0.0081
      2 C          -5.7070    0.5468    2.2061 C.2     1  UNL1       -0.0791
      3 C          -4.4161    0.4032    1.8282 C.2     1  UNL1       -0.0568
      4 C          -4.3598    0.1798    0.4278 C.ar    1  UNL1       -0.0070
      5 C          -5.6765    0.1906   -0.0901 C.ar    1  UNL1       -0.0289
      6 C          -5.7086   -0.0080   -1.4426 C.ar    1  UNL1       -0.0197
      7 S          -4.1050   -0.2014   -2.0599 S.2     1  UNL1       -0.0958
      8 C          -3.3764   -0.0283   -0.4977 C.ar    1  UNL1        0.0275
      9 C          -1.9359   -0.1119   -0.3596 C.ar    1  UNL1        0.0020
     10 C          -1.0418    0.8321   -0.9060 C.ar    1  UNL1       -0.0288
     11 C           0.3596    0.7079   -0.7106 C.ar    1  UNL1        0.0489
     12 N           1.3837    1.5527   -1.1114 N.ar    1  UNL1       -0.3512
     13 C           2.5782    1.0334   -0.7123 C.ar    1  UNL1        0.0915
     14 C           3.9841    1.6114   -0.8927 C.ar    1  UNL1        0.1592
     15 O           4.3804    2.7840   -1.4518 O.2     1  UNL1       -0.4608
     16 C           5.7479    2.8054   -1.3492 C.ar    1  UNL1        0.0932
     17 C           6.2302    1.6596   -0.7380 C.ar    1  UNL1       -0.0155
     18 C           5.0826    0.9240   -0.4597 C.ar    1  UNL1        0.0304
     19 C           4.8494   -0.3521    0.1198 C.ar    1  UNL1        0.0006
     20 C           5.8677   -1.1680    0.5302 C.ar    1  UNL1       -0.0159
     21 S           5.2196   -2.6716    1.0745 S.2     1  UNL1       -0.1038
     22 C           3.5915   -2.1873    0.7332 C.ar    1  UNL1       -0.0159
     23 C           3.5484   -0.8967    0.2843 C.ar    1  UNL1       -0.0003
     24 C           2.3593   -0.1748   -0.0878 C.ar    1  UNL1        0.0199
     25 C           0.9830   -0.3391   -0.0155 C.ar    1  UNL1        0.0189
     26 C           0.0941   -1.2700    0.6062 C.ar    1  UNL1        0.0302
     27 C           0.2822   -2.2997    1.4749 C.ar    1  UNL1        0.1001
     28 O          -0.9407   -2.8536    1.7571 O.2     1  UNL1       -0.4698
     29 C          -1.8850   -2.1276    1.0829 C.ar    1  UNL1        0.1000
     30 C          -1.2910   -1.1000    0.3854 C.ar    1  UNL1        0.0288
     31 H          -7.3344   -0.4240    1.1369 H       1  UNL1        0.0356
     32 H          -7.2194    1.3492    0.8635 H       1  UNL1        0.0356
     33 H          -6.0429    0.7279    3.2163 H       1  UNL1        0.0575
     34 H          -3.5552    0.4512    2.4806 H       1  UNL1        0.0621
     35 H          -6.5604   -0.0488   -2.1067 H       1  UNL1        0.0696
     36 H          -1.4336    1.6771   -1.4694 H       1  UNL1        0.0645
     37 H           1.2646    2.4217   -1.6140 H       1  UNL1        0.1660
     38 H           6.2226    3.6881   -1.7555 H       1  UNL1        0.1030
     39 H           7.2663    1.4241   -0.5459 H       1  UNL1        0.0655
     40 H           6.9360   -1.0039    0.5278 H       1  UNL1        0.0700
     41 H           2.8125   -2.9171    0.8572 H       1  UNL1        0.0700
     42 H           1.1064   -2.7531    1.9991 H       1  UNL1        0.1036
     43 H          -2.9048   -2.4569    1.2270 H       1  UNL1        0.1036
@<TRIPOS>BOND
     1     1     2    1
     2     2     3    2
     3     3     4    1
     4     4     5   ar
     5     5     6   ar
     6     6     7   ar
     7     7     8   ar
     8     8     9    1
     9     9    10   ar
    10    10    11   ar
    11    11    12   ar
    12    12    13   ar
    13    13    14   ar
    14    14    15   ar
    15    15    16   ar
    16    16    17   ar
    17    17    18   ar
    18    18    19   ar
    19    19    20   ar
    20    20    21   ar
    21    21    22   ar
    22    22    23   ar
    23    23    24   ar
    24    24    25   ar
    25    25    26   ar
    26    26    27   ar
    27    27    28   ar
    28    28    29   ar
    29    29    30   ar
    30     5     1    1
    31    30     9   ar
    32     8     4   ar
    33    25    11   ar
    34    30    26   ar
    35    24    13   ar
    36    18    14   ar
    37    23    19   ar
    38     1    31    1
    39     1    32    1
    40     2    33    1
    41     3    34    1
    42     6    35    1
    43    10    36    1
    44    12    37    1
    45    16    38    1
    46    17    39    1
    47    20    40    1
    48    22    41    1
    49    27    42    1
    50    29    43    1
