@<TRIPOS>MOLECULE
*****
 37 42 0 0 0
SMALL
GASTEIGER

@<TRIPOS>ATOM
      1 C           6.6441    0.4183    0.1337 C.3     1  UNL1       -0.0081
      2 C           6.0715    0.6133   -1.2688 C.2     1  UNL1       -0.0791
      3 C           4.7218    0.5250   -1.2657 C.2     1  UNL1       -0.0568
      4 C           4.2589    0.2761    0.0555 C.ar    1  UNL1       -0.0057
      5 C           5.3905    0.2080    0.9110 C.ar    1  UNL1       -0.0288
      6 C           5.0573   -0.0293    2.2139 C.ar    1  UNL1       -0.0196
      7 S           3.3488   -0.1674    2.3766 S.2     1  UNL1       -0.0943
      8 C           3.0507    0.0944    0.6777 C.ar    1  UNL1        0.0429
      9 C           1.7079    0.0945    0.1485 C.ar    1  UNL1        0.0562
     10 C           1.2598    0.2790   -1.1531 C.ar    1  UNL1       -0.0119
     11 C          -0.1509    0.1771   -1.0867 C.ar    1  UNL1        0.0659
     12 N          -1.2761    0.2314   -1.8612 N.ar    1  UNL1       -0.3529
     13 C          -2.3716    0.0272   -1.0469 C.ar    1  UNL1        0.0496
     14 C          -3.7322   -0.0077   -1.3703 C.ar    1  UNL1       -0.0285
     15 C          -4.6549   -0.2378   -0.3302 C.ar    1  UNL1        0.0024
     16 C          -6.0307   -0.2843   -0.5889 C.ar    1  UNL1       -0.0511
     17 C          -6.9262   -0.5123    0.4486 C.ar    1  UNL1       -0.0430
     18 C          -6.4126   -0.6874    1.7183 C.ar    1  UNL1        0.0283
     19 N          -5.0943   -0.6498    2.0090 N.ar    1  UNL1       -0.2550
     20 C          -4.2291   -0.4289    1.0026 C.ar    1  UNL1        0.0717
     21 C          -2.8699   -0.3877    1.2867 C.ar    1  UNL1       -0.0246
     22 C          -1.9319   -0.1597    0.2662 C.ar    1  UNL1        0.0256
     23 C          -0.5196   -0.0566    0.1937 C.ar    1  UNL1        0.0726
     24 N           0.6081   -0.1097    0.9616 N.ar    1  UNL1       -0.3520
     25 H           7.1822    1.3116    0.4626 H       1  UNL1        0.0356
     26 H           7.2973   -0.4579    0.1696 H       1  UNL1        0.0356
     27 H           6.6807    0.7975   -2.1410 H       1  UNL1        0.0575
     28 H           4.0952    0.6288   -2.1378 H       1  UNL1        0.0621
     29 H           5.7034   -0.1298    3.0746 H       1  UNL1        0.0696
     30 H           1.8549    0.4617   -2.0342 H       1  UNL1        0.0660
     31 H          -1.2689    0.3955   -2.8589 H       1  UNL1        0.1660
     32 H          -4.0629    0.1388   -2.3938 H       1  UNL1        0.0645
     33 H          -6.4106   -0.1434   -1.5975 H       1  UNL1        0.0625
     34 H          -7.9944   -0.5521    0.2706 H       1  UNL1        0.0633
     35 H          -7.0662   -0.8688    2.5667 H       1  UNL1        0.0830
     36 H          -2.5397   -0.5342    2.3105 H       1  UNL1        0.0646
     37 H           0.6094   -0.2734    1.9600 H       1  UNL1        0.1660
@<TRIPOS>BOND
     1     1     2    1
     2     2     3    2
     3     3     4    1
     4     4     5   ar
     5     5     6   ar
     6     6     7   ar
     7     7     8   ar
     8     8     9    1
     9     9    10   ar
    10    10    11   ar
    11    11    12   ar
    12    12    13   ar
    13    13    14   ar
    14    14    15   ar
    15    15    16   ar
    16    16    17   ar
    17    17    18   ar
    18    18    19   ar
    19    19    20   ar
    20    20    21   ar
    21    21    22   ar
    22    22    23   ar
    23    23    24   ar
    24     5     1    1
    25    24     9   ar
    26     8     4   ar
    27    23    11   ar
    28    22    13   ar
    29    20    15   ar
    30     1    25    1
    31     1    26    1
    32     2    27    1
    33     3    28    1
    34     6    29    1
    35    10    30    1
    36    12    31    1
    37    14    32    1
    38    16    33    1
    39    17    34    1
    40    18    35    1
    41    21    36    1
    42    24    37    1
