@<TRIPOS>MOLECULE
*****
 49 56 0 0 0
SMALL
GASTEIGER

@<TRIPOS>ATOM
      1 C           6.6289    0.4831    0.4137 C.3     1  UNL1        0.0000
      2 C           5.6450    1.4554   -0.2416 C.2     1  UNL1        0.0000
      3 C           4.4086    0.9153   -0.3364 C.2     1  UNL1        0.0000
      4 C           4.4195   -0.3944    0.2145 C.ar    1  UNL1        0.0000
      5 C           5.7343   -0.6831    0.6585 C.ar    1  UNL1        0.0000
      6 C           5.8492   -1.9417    1.1789 C.ar    1  UNL1        0.0000
      7 S           4.3304   -2.7593    1.1100 S.2     1  UNL1        0.0000
      8 C           3.5138   -1.4041    0.3981 C.ar    1  UNL1        0.0000
      9 C           2.1110   -1.4454    0.1025 C.ar    1  UNL1        0.0000
     10 C           1.3019   -2.5099   -0.2590 C.ar    1  UNL1        0.0000
     11 C          -0.0055   -2.0039   -0.3886 C.ar    1  UNL1        0.0000
     12 C           0.0158   -0.6438   -0.1656 C.ar    1  UNL1        0.0000
     13 N           1.3001   -0.3321    0.1985 N.ar    1  UNL1        0.0000
     14 C          -1.0838    0.2856   -0.1364 C.ar    1  UNL1        0.0000
     15 C          -2.3488   -0.2809   -0.1605 C.ar    1  UNL1        0.0000
     16 C          -3.4874    0.5665    0.2921 C.ar    1  UNL1        0.0000
     17 SI         -5.1386   -0.0922    0.9495 Si      1  UNL1        0.0000
     18 C          -5.6315    1.6510    1.3876 C.2     1  UNL1        0.0000
     19 C          -4.6392    2.5068    1.0934 C.2     1  UNL1        0.0000
     20 C          -3.4262    1.9086    0.5261 C.ar    1  UNL1        0.0000
     21 C          -2.1664    2.5767    0.2645 C.ar    1  UNL1        0.0000
     22 C          -1.9722    3.9109    0.2618 C.2     1  UNL1        0.0000
     23 SI         -0.2226    4.3362   -0.1945 Si      1  UNL1        0.0000
     24 C           0.1140    2.5040   -0.3673 C.2     1  UNL1        0.0000
     25 C          -0.9729    1.7600   -0.0621 C.ar    1  UNL1        0.0000
     26 C          -2.4555   -1.7222   -0.5912 C.ar    1  UNL1        0.0000
     27 C          -3.5591   -2.3315   -1.0812 C.2     1  UNL1        0.0000
     28 SI         -3.2460   -4.1247   -1.5296 Si      1  UNL1        0.0000
     29 C          -1.4634   -3.8685   -1.0964 C.2     1  UNL1        0.0000
     30 C          -1.2525   -2.6072   -0.6781 C.ar    1  UNL1        0.0000
     31 H           7.0233    0.8974    1.3456 H       1  UNL1        0.0000
     32 H           7.4439    0.2341   -0.2714 H       1  UNL1        0.0000
     33 H           5.9260    2.4363   -0.5950 H       1  UNL1        0.0000
     34 H           3.5514    1.3924   -0.7874 H       1  UNL1        0.0000
     35 H           6.7204   -2.4355    1.5853 H       1  UNL1        0.0000
     36 H           1.6222   -3.5350   -0.3883 H       1  UNL1        0.0000
     37 H           1.6067    0.5594    0.5565 H       1  UNL1        0.0000
     38 H          -4.9981   -0.9419    2.1586 H       1  UNL1        0.0000
     39 H          -6.0406   -0.6305   -0.1014 H       1  UNL1        0.0000
     40 H          -6.5904    1.8901    1.8186 H       1  UNL1        0.0000
     41 H          -4.7048    3.5713    1.2789 H       1  UNL1        0.0000
     42 H          -2.7014    4.6805    0.4554 H       1  UNL1        0.0000
     43 H           0.5396    4.9332    0.9282 H       1  UNL1        0.0000
     44 H          -0.1170    5.0501   -1.4892 H       1  UNL1        0.0000
     45 H           1.0705    2.1760   -0.7327 H       1  UNL1        0.0000
     46 H          -4.5340   -1.9198   -1.2680 H       1  UNL1        0.0000
     47 H          -3.4604   -4.3850   -2.9732 H       1  UNL1        0.0000
     48 H          -3.9389   -5.0550   -0.6060 H       1  UNL1        0.0000
     49 H          -0.7193   -4.6334   -1.2490 H       1  UNL1        0.0000
@<TRIPOS>BOND
     1     1     2    1
     2     2     3    2
     3     3     4    1
     4     4     5   ar
     5     5     6   ar
     6     6     7   ar
     7     7     8   ar
     8     8     9    1
     9     9    10   ar
    10    10    11   ar
    11    11    12   ar
    12    12    13   ar
    13    12    14   ar
    14    14    15   ar
    15    15    16   ar
    16    16    17    1
    17    17    18    1
    18    18    19    2
    19    19    20    1
    20    20    21   ar
    21    21    22    2
    22    22    23    1
    23    23    24    1
    24    24    25    2
    25    15    26   ar
    26    26    27    2
    27    27    28    1
    28    28    29    1
    29    29    30    2
    30     5     1    1
    31    13     9   ar
    32    25    14   ar
    33    30    26   ar
    34     8     4   ar
    35    30    11   ar
    36    20    16   ar
    37    25    21   ar
    38     1    31    1
    39     1    32    1
    40     2    33    1
    41     3    34    1
    42     6    35    1
    43    10    36    1
    44    13    37    1
    45    17    38    1
    46    17    39    1
    47    18    40    1
    48    19    41    1
    49    22    42    1
    50    23    43    1
    51    23    44    1
    52    24    45    1
    53    27    46    1
    54    28    47    1
    55    28    48    1
    56    29    49    1
