@<TRIPOS>MOLECULE
*****
 42 49 0 0 0
SMALL
GASTEIGER

@<TRIPOS>ATOM
      1 SI          3.9332   -0.2430   -1.7837 Si      1  UNL1        0.0000
      2 C           3.2799    1.1427   -0.7370 C.2     1  UNL1        0.0000
      3 C           2.0363    0.8852   -0.2773 C.ar    1  UNL1        0.0000
      4 C           1.2593    1.8039    0.5777 C.ar    1  UNL1        0.0000
      5 C           0.0306    1.4102    0.9867 C.ar    1  UNL1        0.0000
      6 C          -0.4703    0.1354    0.5777 C.ar    1  UNL1        0.0000
      7 S          -2.0016   -0.3991    1.0669 S.2     1  UNL1        0.0000
      8 C          -1.8706   -1.8967    0.2170 C.ar    1  UNL1        0.0000
      9 C          -0.6340   -1.9820   -0.4481 C.ar    1  UNL1        0.0000
     10 C          -0.3910   -3.1506   -1.1856 C.ar    1  UNL1        0.0000
     11 N          -1.2892   -4.1601   -1.2642 N.ar    1  UNL1        0.0000
     12 C          -2.4573   -4.0823   -0.6357 C.ar    1  UNL1        0.0000
     13 C          -3.3253   -5.1758   -0.7737 C.ar    1  UNL1        0.0000
     14 C          -4.5994   -5.2756   -0.1856 C.ar    1  UNL1        0.0000
     15 C          -4.9972   -4.1717    0.5941 C.ar    1  UNL1        0.0000
     16 N          -6.1669   -4.0613    1.2402 N.ar    1  UNL1        0.0000
     17 S          -6.1439   -2.5893    2.0016 S.2     1  UNL1        0.0000
     18 N          -4.6536   -2.0329    1.5450 N.ar    1  UNL1        0.0000
     19 C          -4.0897   -2.9744    0.7667 C.ar    1  UNL1        0.0000
     20 C          -2.8093   -2.9503    0.1357 C.ar    1  UNL1        0.0000
     21 C           0.1682   -0.7965   -0.2264 C.ar    1  UNL1        0.0000
     22 C           1.4888   -0.4459   -0.6987 C.ar    1  UNL1        0.0000
     23 C           2.3291   -1.1573   -1.4761 C.2     1  UNL1        0.0000
     24 C           1.6947    3.0889    1.0040 C.ar    1  UNL1        0.0000
     25 S           2.0861    3.5202    2.6412 S.2     1  UNL1        0.0000
     26 C           2.5043    5.1599    2.2251 C.ar    1  UNL1        0.0000
     27 C           2.3357    5.2997    0.8933 C.ar    1  UNL1        0.0000
     28 C           2.4621    6.2655   -0.1169 C.ar    1  UNL1        0.0000
     29 C           2.0802    5.6082   -1.2939 C.ar    1  UNL1        0.0000
     30 O           1.7171    4.2858   -1.1144 O.2     1  UNL1        0.0000
     31 C           1.8982    4.1774    0.2321 C.ar    1  UNL1        0.0000
     32 H           5.0909   -0.9333   -1.1672 H       1  UNL1        0.0000
     33 H           4.0957    0.1316   -3.2084 H       1  UNL1        0.0000
     34 H           3.8717    2.0274   -0.5623 H       1  UNL1        0.0000
     35 H          -0.5921    2.0465    1.6105 H       1  UNL1        0.0000
     36 H           0.5204   -3.3287   -1.7398 H       1  UNL1        0.0000
     37 H          -2.9841   -6.0134   -1.3852 H       1  UNL1        0.0000
     38 H          -5.2342   -6.1425   -0.3218 H       1  UNL1        0.0000
     39 H           2.2024   -2.1291   -1.9126 H       1  UNL1        0.0000
     40 H           2.8317    5.8653    2.9752 H       1  UNL1        0.0000
     41 H           2.7786    7.2955   -0.0380 H       1  UNL1        0.0000
     42 H           2.0146    5.9426   -2.3211 H       1  UNL1        0.0000
@<TRIPOS>BOND
     1     1     2    1
     2     2     3    2
     3     3     4   ar
     4     4     5   ar
     5     5     6   ar
     6     6     7   ar
     7     7     8   ar
     8     8     9   ar
     9     9    10   ar
    10    10    11   ar
    11    11    12   ar
    12    12    13   ar
    13    13    14   ar
    14    14    15   ar
    15    15    16   ar
    16    16    17   ar
    17    17    18   ar
    18    18    19   ar
    19    19    20   ar
    20     9    21   ar
    21    21    22   ar
    22    22    23    2
    23     4    24    1
    24    24    25   ar
    25    25    26   ar
    26    26    27   ar
    27    27    28   ar
    28    28    29   ar
    29    29    30   ar
    30    30    31   ar
    31    23     1    1
    32    31    24   ar
    33    22     3   ar
    34    31    27   ar
    35    21     6   ar
    36    20     8   ar
    37    20    12   ar
    38    19    15   ar
    39     1    32    1
    40     1    33    1
    41     2    34    1
    42     5    35    1
    43    10    36    1
    44    13    37    1
    45    14    38    1
    46    23    39    1
    47    26    40    1
    48    28    41    1
    49    29    42    1
