@<TRIPOS>MOLECULE
*****
 46 53 0 0 0
SMALL
GASTEIGER

@<TRIPOS>ATOM
      1 C           6.7950    0.4607   -0.7651 C.3     1  UNL1        0.0000
      2 C           5.9494    1.7382   -0.7900 C.2     1  UNL1        0.0000
      3 C           4.6508    1.4748   -0.5180 C.2     1  UNL1        0.0000
      4 C           4.4926    0.0828   -0.2931 C.ar    1  UNL1        0.0000
      5 C           5.7499   -0.5500   -0.4355 C.ar    1  UNL1        0.0000
      6 C           5.6804   -1.9016   -0.2401 C.ar    1  UNL1        0.0000
      7 S           4.0555   -2.3752    0.1149 S.2     1  UNL1        0.0000
      8 C           3.4565   -0.7534    0.0126 C.ar    1  UNL1        0.0000
      9 C           2.0490   -0.4847    0.2373 C.ar    1  UNL1        0.0000
     10 C           1.0267   -0.9267   -0.6394 C.ar    1  UNL1        0.0000
     11 C          -0.3689   -0.6542   -0.4541 C.ar    1  UNL1        0.0000
     12 C          -0.8538    0.1117    0.6661 C.ar    1  UNL1        0.0000
     13 C           0.1562    0.5498    1.5415 C.ar    1  UNL1        0.0000
     14 C          -0.0375    1.2899    2.6849 C.ar    1  UNL1        0.0000
     15 S           1.4369    1.6220    3.5004 S.2     1  UNL1        0.0000
     16 C           2.3569    0.7716    2.3303 C.ar    1  UNL1        0.0000
     17 C           1.5637    0.2579    1.3291 C.ar    1  UNL1        0.0000
     18 C          -2.2801    0.3426    0.7722 C.ar    1  UNL1        0.0000
     19 O          -2.8266    1.0542    1.7916 O.2     1  UNL1        0.0000
     20 C          -4.1723    1.0641    1.5640 C.ar    1  UNL1        0.0000
     21 C          -5.1391    1.6753    2.3511 C.ar    1  UNL1        0.0000
     22 C          -6.4482    1.5347    1.8930 C.ar    1  UNL1        0.0000
     23 C          -6.6946    0.8201    0.7231 C.ar    1  UNL1        0.0000
     24 N          -5.7609    0.2207   -0.0520 N.ar    1  UNL1        0.0000
     25 C          -4.4868    0.3614    0.4010 C.ar    1  UNL1        0.0000
     26 C          -3.2540   -0.0998   -0.1011 C.ar    1  UNL1        0.0000
     27 C          -2.8639   -0.8657   -1.2360 C.ar    1  UNL1        0.0000
     28 C          -3.6767   -1.3746   -2.1810 C.2     1  UNL1        0.0000
     29 SI         -2.7204   -2.3063   -3.4705 Si      1  UNL1        0.0000
     30 C          -1.1490   -1.8892   -2.5334 C.2     1  UNL1        0.0000
     31 C          -1.4049   -1.1549   -1.4282 C.ar    1  UNL1        0.0000
     32 H           7.2473    0.2749   -1.7431 H       1  UNL1        0.0000
     33 H           7.5643    0.5188    0.0097 H       1  UNL1        0.0000
     34 H           6.3546    2.7165   -1.0016 H       1  UNL1        0.0000
     35 H           3.8510    2.2013   -0.4765 H       1  UNL1        0.0000
     36 H           6.4693   -2.6393   -0.2842 H       1  UNL1        0.0000
     37 H           1.3414   -1.5026   -1.5084 H       1  UNL1        0.0000
     38 H          -0.9545    1.6656    3.1144 H       1  UNL1        0.0000
     39 H           3.4291    0.7015    2.4534 H       1  UNL1        0.0000
     40 H          -4.8862    2.2182    3.2520 H       1  UNL1        0.0000
     41 H          -7.2725    1.9784    2.4428 H       1  UNL1        0.0000
     42 H          -7.7150    0.7077    0.3616 H       1  UNL1        0.0000
     43 H          -4.7513   -1.2802   -2.2245 H       1  UNL1        0.0000
     44 H          -2.7578   -1.6560   -4.8023 H       1  UNL1        0.0000
     45 H          -2.9999   -3.7622   -3.4609 H       1  UNL1        0.0000
     46 H          -0.2017   -2.2386   -2.9081 H       1  UNL1        0.0000
@<TRIPOS>BOND
     1     1     2    1
     2     2     3    2
     3     3     4    1
     4     4     5   ar
     5     5     6   ar
     6     6     7   ar
     7     7     8   ar
     8     8     9    1
     9     9    10   ar
    10    10    11   ar
    11    11    12   ar
    12    12    13   ar
    13    13    14   ar
    14    14    15   ar
    15    15    16   ar
    16    16    17   ar
    17    12    18   ar
    18    18    19   ar
    19    19    20   ar
    20    20    21   ar
    21    21    22   ar
    22    22    23   ar
    23    23    24   ar
    24    24    25   ar
    25    25    26   ar
    26    26    27   ar
    27    27    28    2
    28    28    29    1
    29    29    30    1
    30    30    31    2
    31     5     1    1
    32    17     9   ar
    33    26    18   ar
    34    31    27   ar
    35     8     4   ar
    36    31    11   ar
    37    17    13   ar
    38    25    20   ar
    39     1    32    1
    40     1    33    1
    41     2    34    1
    42     3    35    1
    43     6    36    1
    44    10    37    1
    45    14    38    1
    46    16    39    1
    47    21    40    1
    48    22    41    1
    49    23    42    1
    50    28    43    1
    51    29    44    1
    52    29    45    1
    53    30    46    1
