@<TRIPOS>MOLECULE
*****
 46 53 0 0 0
SMALL
GASTEIGER

@<TRIPOS>ATOM
      1 C          -6.8820   -0.1253    0.6953 C.3     1  UNL1        0.0000
      2 C          -6.0231    0.2247    1.9149 C.2     1  UNL1        0.0000
      3 C          -4.7176    0.3424    1.5807 C.2     1  UNL1        0.0000
      4 C          -4.5670    0.1021    0.1905 C.ar    1  UNL1        0.0000
      5 C          -5.8365   -0.1817   -0.3658 C.ar    1  UNL1        0.0000
      6 C          -5.7749   -0.4322   -1.7087 C.ar    1  UNL1        0.0000
      7 S          -4.1423   -0.3168   -2.2680 S.2     1  UNL1        0.0000
      8 C          -3.5293    0.0796   -0.6975 C.ar    1  UNL1        0.0000
      9 C          -2.1107    0.3177   -0.5112 C.ar    1  UNL1        0.0000
     10 C          -1.1382   -0.6957   -0.6213 C.ar    1  UNL1        0.0000
     11 C           0.2712   -0.4994   -0.4180 C.ar    1  UNL1        0.0000
     12 C           0.8471    0.7779   -0.0627 C.ar    1  UNL1        0.0000
     13 C          -0.1342    1.8037    0.0315 C.ar    1  UNL1        0.0000
     14 C           0.0744    3.1353    0.3154 C.ar    1  UNL1        0.0000
     15 S          -1.3688    4.0667    0.3304 S.2     1  UNL1        0.0000
     16 C          -2.3221    2.7070   -0.0623 C.ar    1  UNL1        0.0000
     17 C          -1.5613    1.5656   -0.1862 C.ar    1  UNL1        0.0000
     18 C           2.3109    0.8651    0.1525 C.ar    1  UNL1        0.0000
     19 S           3.1582    2.2637    0.6321 S.2     1  UNL1        0.0000
     20 C           4.6790    1.4924    0.6310 C.ar    1  UNL1        0.0000
     21 C           5.9323    2.0464    0.9337 C.ar    1  UNL1        0.0000
     22 C           7.0358    1.2063    0.8661 C.ar    1  UNL1        0.0000
     23 C           6.8411   -0.1134    0.5099 C.ar    1  UNL1        0.0000
     24 N           5.6534   -0.6718    0.2154 N.ar    1  UNL1        0.0000
     25 C           4.5636    0.1499    0.2779 C.ar    1  UNL1        0.0000
     26 C           3.1948   -0.2042    0.0107 C.ar    1  UNL1        0.0000
     27 C           2.6776   -1.4929   -0.3660 C.ar    1  UNL1        0.0000
     28 C           3.3892   -2.6230   -0.5565 C.2     1  UNL1        0.0000
     29 SI          2.3212   -4.0587   -1.0303 Si      1  UNL1        0.0000
     30 C           0.8517   -2.9089   -0.9253 C.2     1  UNL1        0.0000
     31 C           1.2128   -1.6526   -0.5771 C.ar    1  UNL1        0.0000
     32 H          -7.6184    0.6592    0.5004 H       1  UNL1        0.0000
     33 H          -7.3761   -1.0912    0.8320 H       1  UNL1        0.0000
     34 H          -6.4250    0.3553    2.9086 H       1  UNL1        0.0000
     35 H          -3.9081    0.5807    2.2568 H       1  UNL1        0.0000
     36 H          -6.5735   -0.6764   -2.3950 H       1  UNL1        0.0000
     37 H          -1.5060   -1.6892   -0.8718 H       1  UNL1        0.0000
     38 H           0.9784    3.6810    0.5193 H       1  UNL1        0.0000
     39 H          -3.3899    2.8301   -0.1832 H       1  UNL1        0.0000
     40 H           6.0345    3.0906    1.2102 H       1  UNL1        0.0000
     41 H           8.0305    1.5770    1.0886 H       1  UNL1        0.0000
     42 H           7.6873   -0.7938    0.4495 H       1  UNL1        0.0000
     43 H           4.4563   -2.7444   -0.4599 H       1  UNL1        0.0000
     44 H           2.2726   -5.1175    0.0066 H       1  UNL1        0.0000
     45 H           2.5590   -4.5321   -2.4151 H       1  UNL1        0.0000
     46 H          -0.1280   -3.2991   -1.1412 H       1  UNL1        0.0000
@<TRIPOS>BOND
     1     1     2    1
     2     2     3    2
     3     3     4    1
     4     4     5   ar
     5     5     6   ar
     6     6     7   ar
     7     7     8   ar
     8     8     9    1
     9     9    10   ar
    10    10    11   ar
    11    11    12   ar
    12    12    13   ar
    13    13    14   ar
    14    14    15   ar
    15    15    16   ar
    16    16    17   ar
    17    12    18   ar
    18    18    19   ar
    19    19    20   ar
    20    20    21   ar
    21    21    22   ar
    22    22    23   ar
    23    23    24   ar
    24    24    25   ar
    25    25    26   ar
    26    26    27   ar
    27    27    28    2
    28    28    29    1
    29    29    30    1
    30    30    31    2
    31     5     1    1
    32    17     9   ar
    33    26    18   ar
    34    31    27   ar
    35     8     4   ar
    36    31    11   ar
    37    17    13   ar
    38    25    20   ar
    39     1    32    1
    40     1    33    1
    41     2    34    1
    42     3    35    1
    43     6    36    1
    44    10    37    1
    45    14    38    1
    46    16    39    1
    47    21    40    1
    48    22    41    1
    49    23    42    1
    50    28    43    1
    51    29    44    1
    52    29    45    1
    53    30    46    1
