@<TRIPOS>MOLECULE
*****
 47 54 0 0 0
SMALL
GASTEIGER

@<TRIPOS>ATOM
      1 C           6.6667    0.8793    0.2054 C.3     1  UNL1       -0.0081
      2 C           5.5417    1.8095    0.6645 C.2     1  UNL1       -0.0791
      3 C           4.3277    1.2439    0.4757 C.2     1  UNL1       -0.0567
      4 C           4.4896   -0.0459   -0.0965 C.ar    1  UNL1       -0.0041
      5 C           5.8748   -0.2935   -0.2636 C.ar    1  UNL1       -0.0288
      6 C           6.1265   -1.5256   -0.7989 C.ar    1  UNL1       -0.0196
      7 S           4.6460   -2.3662   -1.0872 S.2     1  UNL1       -0.0927
      8 C           3.6656   -1.0616   -0.4976 C.ar    1  UNL1        0.0618
      9 C           2.2298   -1.1234   -0.4764 C.ar    1  UNL1        0.1434
     10 C           1.3893   -2.2094   -0.6451 C.ar    1  UNL1       -0.0069
     11 C           0.0446   -1.7477   -0.5271 C.ar    1  UNL1        0.0291
     12 C           0.1352   -0.3858   -0.3044 C.ar    1  UNL1        0.1446
     13 O           1.4484   -0.0173   -0.2726 O.2     1  UNL1       -0.4536
     14 C          -0.9742    0.4485   -0.1083 C.ar    1  UNL1        0.0344
     15 C          -0.9072    1.8505    0.0431 C.ar    1  UNL1        0.0010
     16 C           0.2287    2.6130   -0.1235 C.ar    1  UNL1       -0.0159
     17 S          -0.0602    4.2853    0.1161 S.2     1  UNL1       -0.1038
     18 C          -1.7207    4.0101    0.4312 C.ar    1  UNL1       -0.0160
     19 C          -2.0478    2.6741    0.3495 C.ar    1  UNL1       -0.0024
     20 C          -3.3460    2.1642    0.5949 C.ar    1  UNL1       -0.0062
     21 C          -4.4585    2.9467    0.9868 C.ar    1  UNL1       -0.0353
     22 C          -5.6321    2.3003    1.3006 C.ar    1  UNL1        0.0282
     23 N          -5.7552    0.9659    1.2852 N.ar    1  UNL1       -0.2626
     24 C          -4.6644    0.2493    0.8926 C.ar    1  UNL1        0.0359
     25 C          -3.4223    0.7405    0.4495 C.ar    1  UNL1        0.0092
     26 C          -2.2945   -0.1208   -0.0328 C.ar    1  UNL1        0.0031
     27 C          -2.4037   -1.5137   -0.4511 C.ar    1  UNL1       -0.0087
     28 C          -3.6192   -2.1675   -0.7841 C.ar    1  UNL1       -0.0534
     29 C          -3.7001   -3.5235   -1.1310 C.ar    1  UNL1       -0.0611
     30 C          -2.5523   -4.2934   -1.1983 C.ar    1  UNL1       -0.0611
     31 C          -1.3218   -3.6932   -0.9694 C.ar    1  UNL1       -0.0533
     32 C          -1.2410   -2.3215   -0.6351 C.ar    1  UNL1       -0.0065
     33 H           7.3223    0.6196    1.0411 H       1  UNL1        0.0356
     34 H           7.2410    1.3340   -0.6065 H       1  UNL1        0.0356
     35 H           5.7123    2.7876    1.0890 H       1  UNL1        0.0575
     36 H           3.3773    1.6916    0.7280 H       1  UNL1        0.0621
     37 H           7.0758   -1.9855   -1.0351 H       1  UNL1        0.0696
     38 H           1.7090   -3.2245   -0.8327 H       1  UNL1        0.0662
     39 H           1.2290    2.3086   -0.3908 H       1  UNL1        0.0700
     40 H          -2.3485    4.8598    0.6565 H       1  UNL1        0.0700
     41 H          -4.4102    4.0253    1.0686 H       1  UNL1        0.0639
     42 H          -6.5164    2.8500    1.6080 H       1  UNL1        0.0830
     43 H          -4.8313   -0.8163    1.0212 H       1  UNL1        0.0836
     44 H          -4.5514   -1.6127   -0.8503 H       1  UNL1        0.0624
     45 H          -4.6662   -3.9644   -1.3657 H       1  UNL1        0.0618
     46 H          -2.6097   -5.3446   -1.4669 H       1  UNL1        0.0618
     47 H          -0.4263   -4.3001   -1.0778 H       1  UNL1        0.0624
@<TRIPOS>BOND
     1     1     2    1
     2     2     3    2
     3     3     4    1
     4     4     5   ar
     5     5     6   ar
     6     6     7   ar
     7     7     8   ar
     8     8     9    1
     9     9    10   ar
    10    10    11   ar
    11    11    12   ar
    12    12    13   ar
    13    12    14   ar
    14    14    15   ar
    15    15    16   ar
    16    16    17   ar
    17    17    18   ar
    18    18    19   ar
    19    19    20   ar
    20    20    21   ar
    21    21    22   ar
    22    22    23   ar
    23    23    24   ar
    24    24    25   ar
    25    25    26   ar
    26    26    27   ar
    27    27    28   ar
    28    28    29   ar
    29    29    30   ar
    30    30    31   ar
    31    31    32   ar
    32     5     1    1
    33    13     9   ar
    34    26    14   ar
    35    32    27   ar
    36     8     4   ar
    37    32    11   ar
    38    19    15   ar
    39    25    20   ar
    40     1    33    1
    41     1    34    1
    42     2    35    1
    43     3    36    1
    44     6    37    1
    45    10    38    1
    46    16    39    1
    47    18    40    1
    48    21    41    1
    49    22    42    1
    50    24    43    1
    51    28    44    1
    52    29    45    1
    53    30    46    1
    54    31    47    1
