@<TRIPOS>MOLECULE
*****
 43 50 0 0 0
SMALL
GASTEIGER

@<TRIPOS>ATOM
      1 C          -6.8578   -0.6936    0.7082 C.3     1  UNL1       -0.0081
      2 C          -6.0653    0.2387    1.6280 C.2     1  UNL1       -0.0791
      3 C          -4.7521    0.2504    1.3043 C.2     1  UNL1       -0.0568
      4 C          -4.5296   -0.6148    0.1994 C.ar    1  UNL1       -0.0066
      5 C          -5.7665   -1.1962   -0.1737 C.ar    1  UNL1       -0.0289
      6 C          -5.6442   -2.0600   -1.2257 C.ar    1  UNL1       -0.0197
      7 S          -3.9994   -2.1441   -1.7442 S.2     1  UNL1       -0.0953
      8 C          -3.4524   -1.0133   -0.5455 C.ar    1  UNL1        0.0333
      9 C          -2.0768   -0.5963   -0.4447 C.ar    1  UNL1        0.0276
     10 C          -1.6224    0.6891   -0.2304 C.ar    1  UNL1       -0.0380
     11 C          -0.2185    0.7040   -0.1717 C.ar    1  UNL1       -0.0005
     12 C           0.5741    1.8747    0.0363 C.ar    1  UNL1        0.0084
     13 C           0.1776    3.1673    0.2135 C.ar    1  UNL1        0.0100
     14 N           1.3502    3.8763    0.3667 N.ar    1  UNL1       -0.3659
     15 C           2.4374    3.0234    0.2845 C.ar    1  UNL1        0.0101
     16 C           1.9695    1.7436    0.0738 C.ar    1  UNL1        0.0113
     17 C           2.7178    0.5755   -0.0713 C.ar    1  UNL1        0.0359
     18 C           4.1257    0.4802   -0.0277 C.ar    1  UNL1        0.1438
     19 O           5.0565    1.4738    0.1608 O.2     1  UNL1       -0.4623
     20 C           6.2920    0.8874    0.1229 C.ar    1  UNL1        0.0932
     21 C           6.2002   -0.4744   -0.0866 C.ar    1  UNL1       -0.0154
     22 C           4.8315   -0.6946   -0.1761 C.ar    1  UNL1        0.0315
     23 C           4.0733   -1.8649   -0.3842 C.ar    1  UNL1        0.0312
     24 C           4.4829   -3.1461   -0.5612 C.ar    1  UNL1        0.1001
     25 O           3.3570   -3.9075   -0.7228 O.2     1  UNL1       -0.4698
     26 C           2.2709   -3.0672   -0.6407 C.ar    1  UNL1        0.1000
     27 C           2.6647   -1.7625   -0.4267 C.ar    1  UNL1        0.0294
     28 C           1.8806   -0.5991   -0.2830 C.ar    1  UNL1        0.0113
     29 C           0.4505   -0.5072   -0.3274 C.ar    1  UNL1        0.0291
     30 S          -0.7759   -1.7111   -0.5593 S.2     1  UNL1       -0.0871
     31 H          -7.3234   -1.5009    1.2802 H       1  UNL1        0.0356
     32 H          -7.6122   -0.1365    0.1459 H       1  UNL1        0.0356
     33 H          -6.5127    0.8007    2.4342 H       1  UNL1        0.0575
     34 H          -3.9839    0.8171    1.8113 H       1  UNL1        0.0621
     35 H          -6.4064   -2.6453   -1.7206 H       1  UNL1        0.0696
     36 H          -2.2722    1.5493   -0.1353 H       1  UNL1        0.0635
     37 H          -0.7851    3.6574    0.2459 H       1  UNL1        0.0813
     38 H           1.4120    4.8751    0.5166 H       1  UNL1        0.1648
     39 H           3.4381    3.4220    0.3845 H       1  UNL1        0.0813
     40 H           7.1233    1.5653    0.2594 H       1  UNL1        0.1030
     41 H           7.0202   -1.1732   -0.1586 H       1  UNL1        0.0655
     42 H           5.4258   -3.6712   -0.6019 H       1  UNL1        0.1036
     43 H           1.3249   -3.5745   -0.7572 H       1  UNL1        0.1036
@<TRIPOS>BOND
     1     1     2    1
     2     2     3    2
     3     3     4    1
     4     4     5   ar
     5     5     6   ar
     6     6     7   ar
     7     7     8   ar
     8     8     9    1
     9     9    10   ar
    10    10    11   ar
    11    11    12   ar
    12    12    13   ar
    13    13    14   ar
    14    14    15   ar
    15    15    16   ar
    16    16    17   ar
    17    17    18   ar
    18    18    19   ar
    19    19    20   ar
    20    20    21   ar
    21    21    22   ar
    22    22    23   ar
    23    23    24   ar
    24    24    25   ar
    25    25    26   ar
    26    26    27   ar
    27    27    28   ar
    28    28    29   ar
    29    29    30   ar
    30     5     1    1
    31    30     9   ar
    32     8     4   ar
    33    29    11   ar
    34    16    12   ar
    35    28    17   ar
    36    22    18   ar
    37    27    23   ar
    38     1    31    1
    39     1    32    1
    40     2    33    1
    41     3    34    1
    42     6    35    1
    43    10    36    1
    44    13    37    1
    45    14    38    1
    46    15    39    1
    47    20    40    1
    48    21    41    1
    49    24    42    1
    50    26    43    1
