@<TRIPOS>MOLECULE
*****
 44 52 0 0 0
SMALL
GASTEIGER

@<TRIPOS>ATOM
      1 C           7.3018   -0.1673   -0.6752 C.3     1  UNL1       -0.0081
      2 C           6.4086   -1.2525   -1.2815 C.2     1  UNL1       -0.0791
      3 C           5.1056   -1.0387   -0.9885 C.2     1  UNL1       -0.0568
      4 C           4.9850    0.1370   -0.1999 C.ar    1  UNL1       -0.0066
      5 C           6.2780    0.6812   -0.0021 C.ar    1  UNL1       -0.0289
      6 C           6.2563    1.8301    0.7378 C.ar    1  UNL1       -0.0197
      7 S           4.6357    2.2257    1.1834 S.2     1  UNL1       -0.0953
      8 C           3.9633    0.8443    0.3746 C.ar    1  UNL1        0.0333
      9 C           2.5530    0.5507    0.3863 C.ar    1  UNL1        0.0276
     10 C           1.9741   -0.6868    0.5766 C.ar    1  UNL1       -0.0381
     11 C           0.5706   -0.5917    0.5005 C.ar    1  UNL1       -0.0013
     12 C          -0.3424   -1.6661    0.7121 C.ar    1  UNL1       -0.0020
     13 C           0.0401   -2.9247    1.0831 C.ar    1  UNL1       -0.0160
     14 S          -1.3604   -3.8579    1.4017 S.2     1  UNL1       -0.1038
     15 C          -2.3966   -2.5268    1.0406 C.ar    1  UNL1       -0.0160
     16 C          -1.7323   -1.4130    0.5632 C.ar    1  UNL1       -0.0018
     17 C          -2.3820   -0.1921    0.1765 C.ar    1  UNL1        0.0034
     18 C          -1.3971    0.8762    0.1560 C.ar    1  UNL1        0.0259
     19 C          -1.9318    2.2002    0.0316 C.ar    1  UNL1        0.1093
     20 N          -1.2402    3.3546    0.0506 N.ar    1  UNL1       -0.1901
     21 S          -2.3047    4.6024   -0.0744 S.2     1  UNL1        0.1165
     22 N          -3.7197    3.7620   -0.1740 N.ar    1  UNL1       -0.1901
     23 C          -3.4137    2.4507   -0.1182 C.ar    1  UNL1        0.1083
     24 C          -4.3588    1.3823   -0.2207 C.ar    1  UNL1        0.0131
     25 C          -5.7377    1.7180   -0.4254 C.ar    1  UNL1       -0.0497
     26 C          -6.7349    0.7702   -0.6502 C.ar    1  UNL1       -0.0328
     27 C          -6.2840   -0.5578   -0.7356 C.ar    1  UNL1        0.1005
     28 N          -7.0712   -1.6033   -1.0304 N.ar    1  UNL1       -0.1908
     29 S          -6.0855   -2.9267   -1.1186 S.2     1  UNL1        0.1165
     30 N          -4.6288   -2.2373   -0.7583 N.ar    1  UNL1       -0.1901
     31 C          -4.8286   -0.9309   -0.5075 C.ar    1  UNL1        0.1082
     32 C          -3.8140    0.0515   -0.1441 C.ar    1  UNL1        0.0208
     33 C           0.0241    0.6575    0.2639 C.ar    1  UNL1        0.0304
     34 S           1.3660    1.7606    0.1397 S.2     1  UNL1       -0.0870
     35 H           8.0076   -0.5988    0.0399 H       1  UNL1        0.0356
     36 H           7.8341    0.3804   -1.4577 H       1  UNL1        0.0356
     37 H           6.7872   -2.0721   -1.8741 H       1  UNL1        0.0575
     38 H           4.2789   -1.6550   -1.3127 H       1  UNL1        0.0621
     39 H           7.0790    2.4612    1.0432 H       1  UNL1        0.0696
     40 H           2.5489   -1.5831    0.7703 H       1  UNL1        0.0635
     41 H           1.0234   -3.3471    1.2315 H       1  UNL1        0.0700
     42 H          -3.4471   -2.6752    1.2312 H       1  UNL1        0.0700
     43 H          -6.0384    2.7684   -0.4278 H       1  UNL1        0.0625
     44 H          -7.7711    1.0397   -0.8130 H       1  UNL1        0.0640
@<TRIPOS>BOND
     1     1     2    1
     2     2     3    2
     3     3     4    1
     4     4     5   ar
     5     5     6   ar
     6     6     7   ar
     7     7     8   ar
     8     8     9    1
     9     9    10   ar
    10    10    11   ar
    11    11    12   ar
    12    12    13   ar
    13    13    14   ar
    14    14    15   ar
    15    15    16   ar
    16    16    17   ar
    17    17    18   ar
    18    18    19   ar
    19    19    20   ar
    20    20    21   ar
    21    21    22   ar
    22    22    23   ar
    23    23    24   ar
    24    24    25   ar
    25    25    26   ar
    26    26    27   ar
    27    27    28   ar
    28    28    29   ar
    29    29    30   ar
    30    30    31   ar
    31    31    32   ar
    32    18    33   ar
    33    33    34   ar
    34     5     1    1
    35    34     9   ar
    36     8     4   ar
    37    33    11   ar
    38    16    12   ar
    39    32    17   ar
    40    23    19   ar
    41    32    24   ar
    42    31    27   ar
    43     1    35    1
    44     1    36    1
    45     2    37    1
    46     3    38    1
    47     6    39    1
    48    10    40    1
    49    13    41    1
    50    15    42    1
    51    25    43    1
    52    26    44    1
