@<TRIPOS>MOLECULE
*****
 45 52 0 0 0
SMALL
GASTEIGER

@<TRIPOS>ATOM
      1 C           6.8641    0.4360    0.4604 C.3     1  UNL1       -0.0081
      2 C           6.0386   -0.0939    1.6374 C.2     1  UNL1       -0.0791
      3 C           4.7244   -0.1649    1.3250 C.2     1  UNL1       -0.0568
      4 C           4.5358    0.2784   -0.0096 C.ar    1  UNL1       -0.0070
      5 C           5.7898    0.6461   -0.5516 C.ar    1  UNL1       -0.0289
      6 C           5.6919    1.0937   -1.8401 C.ar    1  UNL1       -0.0197
      7 S           4.0447    1.0578   -2.3656 S.2     1  UNL1       -0.0958
      8 C           3.4741    0.4294   -0.8558 C.ar    1  UNL1        0.0273
      9 C           2.0608    0.1619   -0.6696 C.ar    1  UNL1       -0.0019
     10 C           1.0798    1.1784   -0.6292 C.ar    1  UNL1       -0.0445
     11 C          -0.3322    0.9334   -0.4186 C.ar    1  UNL1       -0.0049
     12 C          -1.3456    1.9362   -0.3710 C.ar    1  UNL1       -0.0023
     13 C          -1.0925    3.2849   -0.5274 C.ar    1  UNL1       -0.0160
     14 S          -2.5193    4.2504   -0.4198 S.2     1  UNL1       -0.1038
     15 C          -3.5179    2.8746   -0.1607 C.ar    1  UNL1       -0.0159
     16 C          -2.7436    1.7517   -0.1650 C.ar    1  UNL1        0.0011
     17 C          -3.2082    0.4151    0.0178 C.ar    1  UNL1        0.0368
     18 C          -4.4855   -0.1224    0.2393 C.ar    1  UNL1        0.0285
     19 C          -5.8135    0.3235    0.3795 C.ar    1  UNL1       -0.0504
     20 C          -6.8296   -0.6191    0.6018 C.ar    1  UNL1       -0.0610
     21 C          -6.5430   -1.9823    0.6851 C.ar    1  UNL1       -0.0582
     22 C          -5.2341   -2.4512    0.5495 C.ar    1  UNL1       -0.0187
     23 C          -4.2440   -1.4945    0.3295 C.ar    1  UNL1        0.1363
     24 O          -2.9172   -1.7756    0.1748 O.2     1  UNL1       -0.4542
     25 C          -2.2596   -0.5890   -0.0213 C.ar    1  UNL1        0.1451
     26 C          -0.8774   -0.3940   -0.2262 C.ar    1  UNL1        0.0339
     27 C           0.1143   -1.3973   -0.2731 C.ar    1  UNL1        0.0010
     28 C          -0.1192   -2.7466   -0.1272 C.ar    1  UNL1       -0.0159
     29 S           1.3186   -3.6752   -0.2549 S.2     1  UNL1       -0.1038
     30 C           2.2787   -2.2798   -0.5130 C.ar    1  UNL1       -0.0160
     31 C           1.5274   -1.1260   -0.4867 C.ar    1  UNL1       -0.0019
     32 H           7.5940   -0.3085    0.1310 H       1  UNL1        0.0356
     33 H           7.3627    1.3724    0.7255 H       1  UNL1        0.0356
     34 H           6.4675   -0.3695    2.5893 H       1  UNL1        0.0575
     35 H           3.9337   -0.5039    1.9801 H       1  UNL1        0.0621
     36 H           6.4717    1.4399   -2.5037 H       1  UNL1        0.0696
     37 H           1.4233    2.2041   -0.7580 H       1  UNL1        0.0630
     38 H          -0.1542    3.7914   -0.7017 H       1  UNL1        0.0700
     39 H          -4.5808    3.0003   -0.0279 H       1  UNL1        0.0700
     40 H          -6.0709    1.3750    0.3200 H       1  UNL1        0.0625
     41 H          -7.8580   -0.2797    0.7107 H       1  UNL1        0.0618
     42 H          -7.3495   -2.6919    0.8579 H       1  UNL1        0.0619
     43 H          -4.9930   -3.5056    0.6111 H       1  UNL1        0.0654
     44 H          -1.0496   -3.2678    0.0450 H       1  UNL1        0.0700
     45 H           3.3425   -2.3961   -0.6701 H       1  UNL1        0.0700
@<TRIPOS>BOND
     1     1     2    1
     2     2     3    2
     3     3     4    1
     4     4     5   ar
     5     5     6   ar
     6     6     7   ar
     7     7     8   ar
     8     8     9    1
     9     9    10   ar
    10    10    11   ar
    11    11    12   ar
    12    12    13   ar
    13    13    14   ar
    14    14    15   ar
    15    15    16   ar
    16    16    17   ar
    17    17    18   ar
    18    18    19   ar
    19    19    20   ar
    20    20    21   ar
    21    21    22   ar
    22    22    23   ar
    23    23    24   ar
    24    24    25   ar
    25    25    26   ar
    26    26    27   ar
    27    27    28   ar
    28    28    29   ar
    29    29    30   ar
    30    30    31   ar
    31     5     1    1
    32    31     9   ar
    33     8     4   ar
    34    26    11   ar
    35    31    27   ar
    36    16    12   ar
    37    25    17   ar
    38    23    18   ar
    39     1    32    1
    40     1    33    1
    41     2    34    1
    42     3    35    1
    43     6    36    1
    44    10    37    1
    45    13    38    1
    46    15    39    1
    47    19    40    1
    48    20    41    1
    49    21    42    1
    50    22    43    1
    51    28    44    1
    52    30    45    1
