@<TRIPOS>MOLECULE
*****
 36 42 0 0 0
SMALL
GASTEIGER

@<TRIPOS>ATOM
      1 C          -6.3253   -0.2218   -0.1024 C.3     1  UNL1       -0.0081
      2 C          -5.4718   -1.4843   -0.2474 C.2     1  UNL1       -0.0791
      3 C          -4.1515   -1.1949   -0.1975 C.2     1  UNL1       -0.0568
      4 C          -3.9805    0.2045   -0.0211 C.ar    1  UNL1       -0.0066
      5 C          -5.2596    0.8113    0.0329 C.ar    1  UNL1       -0.0289
      6 C          -5.1910    2.1677    0.1865 C.ar    1  UNL1       -0.0197
      7 S          -3.5438    2.6796    0.2641 S.2     1  UNL1       -0.0953
      8 C          -2.9238    1.0677    0.0886 C.ar    1  UNL1        0.0333
      9 C          -1.5131    0.7761    0.1010 C.ar    1  UNL1        0.0277
     10 C          -0.8918   -0.2749    0.7636 C.ar    1  UNL1       -0.0380
     11 C           0.4948   -0.2495    0.5306 C.ar    1  UNL1       -0.0009
     12 C           1.4972   -1.1491    1.0289 C.ar    1  UNL1       -0.0020
     13 C           1.2055   -2.2089    1.8456 C.ar    1  UNL1       -0.0160
     14 S           2.6509   -3.0647    2.2412 S.2     1  UNL1       -0.1038
     15 C           3.6381   -1.9924    1.3079 C.ar    1  UNL1       -0.0160
     16 C           2.8725   -1.0203    0.7209 C.ar    1  UNL1       -0.0009
     17 C           3.3338    0.0415   -0.1222 C.ar    1  UNL1        0.0128
     18 C           4.6728    0.2728   -0.4986 C.ar    1  UNL1        0.0347
     19 S           6.2638   -0.4039   -0.2555 S.2     1  UNL1       -0.0955
     20 C           6.9609    0.8071   -1.2423 C.ar    1  UNL1       -0.0227
     21 C           6.0531    1.7038   -1.7517 C.ar    1  UNL1       -0.0403
     22 C           4.7303    1.3867   -1.3160 C.ar    1  UNL1        0.0276
     23 S           3.1482    2.1147   -1.5982 S.2     1  UNL1       -0.0865
     24 C           2.4303    0.9300   -0.6263 C.ar    1  UNL1        0.0359
     25 C           0.9218    0.7712   -0.2762 C.ar    1  UNL1        0.0349
     26 S          -0.3727    1.7380   -0.7756 S.2     1  UNL1       -0.0866
     27 H          -6.9544   -0.2777    0.7902 H       1  UNL1        0.0356
     28 H          -6.9371   -0.0613   -0.9944 H       1  UNL1        0.0356
     29 H          -5.8883   -2.4715   -0.3819 H       1  UNL1        0.0575
     30 H          -3.3471   -1.9108   -0.2906 H       1  UNL1        0.0621
     31 H          -5.9938    2.8882    0.2562 H       1  UNL1        0.0696
     32 H          -1.4274   -0.9892    1.3752 H       1  UNL1        0.0635
     33 H           0.2578   -2.5460    2.2406 H       1  UNL1        0.0700
     34 H           4.7005   -2.1752    1.2753 H       1  UNL1        0.0700
     35 H           8.0307    0.8002   -1.4035 H       1  UNL1        0.0694
     36 H           6.3101    2.5356   -2.3951 H       1  UNL1        0.0634
@<TRIPOS>BOND
     1     1     2    1
     2     2     3    2
     3     3     4    1
     4     4     5   ar
     5     5     6   ar
     6     6     7   ar
     7     7     8   ar
     8     8     9    1
     9     9    10   ar
    10    10    11   ar
    11    11    12   ar
    12    12    13   ar
    13    13    14   ar
    14    14    15   ar
    15    15    16   ar
    16    16    17   ar
    17    17    18   ar
    18    18    19   ar
    19    19    20   ar
    20    20    21   ar
    21    21    22   ar
    22    22    23   ar
    23    23    24   ar
    24    24    25   ar
    25    25    26   ar
    26     5     1    1
    27    26     9   ar
    28     8     4   ar
    29    25    11   ar
    30    16    12   ar
    31    24    17   ar
    32    22    18   ar
    33     1    27    1
    34     1    28    1
    35     2    29    1
    36     3    30    1
    37     6    31    1
    38    10    32    1
    39    13    33    1
    40    15    34    1
    41    20    35    1
    42    21    36    1
