@<TRIPOS>MOLECULE
*****
 44 51 0 0 0
SMALL
GASTEIGER

@<TRIPOS>ATOM
      1 C           6.8594   -0.7758   -0.4977 C.3     1  UNL1       -0.0081
      2 C           5.9128   -1.7239    0.2461 C.2     1  UNL1       -0.0791
      3 C           4.6791   -1.1848    0.3783 C.2     1  UNL1       -0.0568
      4 C           4.6628    0.0994   -0.2247 C.ar    1  UNL1       -0.0070
      5 C           5.9451    0.3725   -0.7564 C.ar    1  UNL1       -0.0289
      6 C           6.0122    1.5992   -1.3570 C.ar    1  UNL1       -0.0197
      7 S           4.4814    2.3988   -1.2647 S.2     1  UNL1       -0.0957
      8 C           3.7429    1.0938   -0.3983 C.ar    1  UNL1        0.0288
      9 C           2.3423    1.1615   -0.0231 C.ar    1  UNL1        0.0180
     10 C           1.3659    0.3382   -0.6248 C.ar    1  UNL1       -0.0436
     11 C          -0.0106    0.3594   -0.2824 C.ar    1  UNL1       -0.0145
     12 C          -0.9100   -0.4922   -0.9415 C.ar    1  UNL1       -0.0455
     13 C          -2.2873   -0.4876   -0.6154 C.ar    1  UNL1       -0.0046
     14 C          -3.3114   -1.2850   -1.1906 C.ar    1  UNL1        0.0079
     15 C          -3.1750   -2.2282   -2.1866 C.ar    1  UNL1        0.0100
     16 N          -4.4283   -2.7662   -2.4443 N.ar    1  UNL1       -0.3659
     17 C          -5.3791   -2.1858   -1.6283 C.ar    1  UNL1        0.0101
     18 C          -4.6826   -1.2908   -0.8764 C.ar    1  UNL1        0.0107
     19 C          -5.1269   -0.4053    0.1317 C.ar    1  UNL1        0.0299
     20 C          -6.3822   -0.1616    0.6737 C.ar    1  UNL1       -0.0155
     21 C          -6.1404    0.8181    1.6174 C.ar    1  UNL1        0.0932
     22 O          -4.8158    1.1618    1.6593 O.2     1  UNL1       -0.4623
     23 C          -4.1691    0.3919    0.7219 C.ar    1  UNL1        0.1431
     24 C          -2.7811    0.3911    0.3966 C.ar    1  UNL1        0.0263
     25 C          -1.8935    1.2471    1.0624 C.ar    1  UNL1       -0.0406
     26 C          -0.5210    1.2324    0.7267 C.ar    1  UNL1        0.0110
     27 C           0.4340    2.0864    1.3790 C.ar    1  UNL1        0.1082
     28 N           0.1754    2.9756    2.3558 N.ar    1  UNL1       -0.1901
     29 S           1.6182    3.6832    2.7557 S.2     1  UNL1        0.1165
     30 N           2.6441    2.8986    1.7213 N.ar    1  UNL1       -0.1901
     31 C           1.8970    2.0463    0.9962 C.ar    1  UNL1        0.1087
     32 H           7.7022   -0.4904    0.1378 H       1  UNL1        0.0356
     33 H           7.2148   -1.2309   -1.4263 H       1  UNL1        0.0356
     34 H           6.2121   -2.6926    0.6176 H       1  UNL1        0.0575
     35 H           3.8355   -1.6469    0.8712 H       1  UNL1        0.0621
     36 H           6.8511    2.0770   -1.8428 H       1  UNL1        0.0696
     37 H           1.7002   -0.3483   -1.4058 H       1  UNL1        0.0630
     38 H          -0.5537   -1.1678   -1.7156 H       1  UNL1        0.0630
     39 H          -2.3179   -2.5780   -2.7452 H       1  UNL1        0.0813
     40 H          -4.6167   -3.4824   -3.1338 H       1  UNL1        0.1648
     41 H          -6.4204   -2.4716   -1.6778 H       1  UNL1        0.0813
     42 H          -7.3343   -0.6114    0.4364 H       1  UNL1        0.0655
     43 H          -6.7721    1.3543    2.3122 H       1  UNL1        0.1030
     44 H          -2.2593    1.9210    1.8353 H       1  UNL1        0.0631
@<TRIPOS>BOND
     1     1     2    1
     2     2     3    2
     3     3     4    1
     4     4     5   ar
     5     5     6   ar
     6     6     7   ar
     7     7     8   ar
     8     8     9    1
     9     9    10   ar
    10    10    11   ar
    11    11    12   ar
    12    12    13   ar
    13    13    14   ar
    14    14    15   ar
    15    15    16   ar
    16    16    17   ar
    17    17    18   ar
    18    18    19   ar
    19    19    20   ar
    20    20    21   ar
    21    21    22   ar
    22    22    23   ar
    23    23    24   ar
    24    24    25   ar
    25    25    26   ar
    26    26    27   ar
    27    27    28   ar
    28    28    29   ar
    29    29    30   ar
    30    30    31   ar
    31     5     1    1
    32    31     9   ar
    33     8     4   ar
    34    26    11   ar
    35    31    27   ar
    36    24    13   ar
    37    18    14   ar
    38    23    19   ar
    39     1    32    1
    40     1    33    1
    41     2    34    1
    42     3    35    1
    43     6    36    1
    44    10    37    1
    45    12    38    1
    46    15    39    1
    47    16    40    1
    48    17    41    1
    49    20    42    1
    50    21    43    1
    51    25    44    1
