@<TRIPOS>MOLECULE
*****
 45 51 0 0 0
SMALL
GASTEIGER

@<TRIPOS>ATOM
      1 C           6.7589    0.9924   -1.7013 C.3     1  UNL1       -0.0081
      2 C           5.4688    1.1126   -2.5156 C.2     1  UNL1       -0.0791
      3 C           4.4054    0.6380   -1.8276 C.2     1  UNL1       -0.0568
      4 C           4.8324    0.1794   -0.5519 C.ar    1  UNL1       -0.0057
      5 C           6.2340    0.3681   -0.4543 C.ar    1  UNL1       -0.0288
      6 C           6.7433   -0.0741    0.7344 C.ar    1  UNL1       -0.0196
      7 S           5.4846   -0.7247    1.7201 S.2     1  UNL1       -0.0943
      8 C           4.2494   -0.3886    0.5487 C.ar    1  UNL1        0.0429
      9 C           2.8720   -0.6927    0.8066 C.ar    1  UNL1        0.0547
     10 C           2.3009   -1.6963    1.5661 C.ar    1  UNL1       -0.0281
     11 C           0.8887   -1.5510    1.5018 C.ar    1  UNL1        0.0009
     12 C          -0.1971   -2.2255    2.0763 C.ar    1  UNL1       -0.0434
     13 C          -1.5135   -1.7921    1.8078 C.ar    1  UNL1        0.0015
     14 C          -2.5695   -2.3977    2.4616 C.ar    1  UNL1        0.0360
     15 N          -3.8527   -2.0181    2.3472 N.ar    1  UNL1       -0.2543
     16 C          -4.1475   -1.0469    1.4798 C.ar    1  UNL1        0.0722
     17 C          -5.4786   -0.6857    1.4502 C.ar    1  UNL1       -0.0351
     18 C          -5.9588    0.2890    0.5868 C.ar    1  UNL1       -0.0520
     19 C          -5.1123    0.8693   -0.3487 C.ar    1  UNL1       -0.0172
     20 C          -5.6534    1.7859   -1.2674 C.ar    1  UNL1       -0.0540
     21 C          -4.8772    2.3221   -2.2872 C.ar    1  UNL1       -0.0612
     22 C          -3.5606    1.9180   -2.4139 C.ar    1  UNL1       -0.0611
     23 C          -3.0159    1.0171   -1.4907 C.ar    1  UNL1       -0.0534
     24 C          -3.7410    0.5016   -0.3837 C.ar    1  UNL1       -0.0081
     25 C          -3.2045   -0.4009    0.6412 C.ar    1  UNL1        0.0158
     26 C          -1.8080   -0.7302    0.9207 C.ar    1  UNL1       -0.0047
     27 C          -0.6828   -0.0204    0.4195 C.ar    1  UNL1       -0.0294
     28 C           0.6238   -0.4527    0.6993 C.ar    1  UNL1        0.0475
     29 N           1.8381    0.0645    0.3101 N.ar    1  UNL1       -0.3537
     30 H           7.1936    1.9778   -1.5126 H       1  UNL1        0.0356
     31 H           7.4798    0.3451   -2.2083 H       1  UNL1        0.0356
     32 H           5.4347    1.5115   -3.5187 H       1  UNL1        0.0575
     33 H           3.3930    0.5895   -2.2010 H       1  UNL1        0.0621
     34 H           7.7660   -0.0657    1.0843 H       1  UNL1        0.0696
     35 H           2.8407   -2.4579    2.1141 H       1  UNL1        0.0645
     36 H          -0.0092   -3.0600    2.7468 H       1  UNL1        0.0631
     37 H          -2.4109   -3.2155    3.1604 H       1  UNL1        0.0836
     38 H          -6.1719   -1.1740    2.1326 H       1  UNL1        0.0639
     39 H          -7.0156    0.5438    0.6244 H       1  UNL1        0.0624
     40 H          -6.7016    2.0738   -1.2076 H       1  UNL1        0.0624
     41 H          -5.3109    3.0198   -2.9979 H       1  UNL1        0.0618
     42 H          -2.9546    2.2827   -3.2392 H       1  UNL1        0.0618
     43 H          -2.0109    0.6700   -1.7048 H       1  UNL1        0.0624
     44 H          -0.8026    0.9023   -0.1333 H       1  UNL1        0.0644
     45 H           1.9537    0.8964   -0.2497 H       1  UNL1        0.1659
@<TRIPOS>BOND
     1     1     2    1
     2     2     3    2
     3     3     4    1
     4     4     5   ar
     5     5     6   ar
     6     6     7   ar
     7     7     8   ar
     8     8     9    1
     9     9    10   ar
    10    10    11   ar
    11    11    12   ar
    12    12    13   ar
    13    13    14   ar
    14    14    15   ar
    15    15    16   ar
    16    16    17   ar
    17    17    18   ar
    18    18    19   ar
    19    19    20   ar
    20    20    21   ar
    21    21    22   ar
    22    22    23   ar
    23    23    24   ar
    24    24    25   ar
    25    25    26   ar
    26    26    27   ar
    27    27    28   ar
    28    28    29   ar
    29     5     1    1
    30    29     9   ar
    31     8     4   ar
    32    28    11   ar
    33    26    13   ar
    34    25    16   ar
    35    24    19   ar
    36     1    30    1
    37     1    31    1
    38     2    32    1
    39     3    33    1
    40     6    34    1
    41    10    35    1
    42    12    36    1
    43    14    37    1
    44    17    38    1
    45    18    39    1
    46    20    40    1
    47    21    41    1
    48    22    42    1
    49    23    43    1
    50    27    44    1
    51    29    45    1
