@<TRIPOS>MOLECULE
*****
 46 52 0 0 0
SMALL
GASTEIGER

@<TRIPOS>ATOM
      1 C           7.9441    0.1283    0.2675 C.3     1  UNL1        0.0000
      2 C           7.1816   -0.0309    1.5840 C.2     1  UNL1        0.0000
      3 C           5.8454   -0.0566    1.3768 C.2     1  UNL1        0.0000
      4 C           5.5766    0.0746   -0.0123 C.ar    1  UNL1        0.0000
      5 C           6.8105    0.1878   -0.6987 C.ar    1  UNL1        0.0000
      6 C           6.6483    0.3183   -2.0483 C.ar    1  UNL1        0.0000
      7 S           4.9720    0.2981   -2.4531 S.2     1  UNL1        0.0000
      8 C           4.4538    0.1232   -0.7985 C.ar    1  UNL1        0.0000
      9 C           3.0297    0.0308   -0.4455 C.ar    1  UNL1        0.0000
     10 C           2.0023    0.5205   -1.2415 C.ar    1  UNL1        0.0000
     11 C           0.6690    0.3857   -0.8216 C.ar    1  UNL1        0.0000
     12 C          -0.3620    0.8896   -1.6067 C.ar    1  UNL1        0.0000
     13 C          -1.6926    0.7452   -1.2115 C.ar    1  UNL1        0.0000
     14 C          -2.0771    0.0765   -0.0289 C.ar    1  UNL1        0.0000
     15 C          -1.0184   -0.3625    0.8211 C.ar    1  UNL1        0.0000
     16 C          -1.3655   -0.8923    2.0820 C.ar    1  UNL1        0.0000
     17 C          -2.6828   -0.9529    2.5272 C.ar    1  UNL1        0.0000
     18 C          -3.7242   -0.5600    1.6925 C.ar    1  UNL1        0.0000
     19 C          -5.0910   -0.5581    2.2640 C.ar    1  UNL1        0.0000
     20 C          -6.1633   -0.2173    1.5352 C.ar    1  UNL1        0.0000
     21 C          -6.0052    0.0710    0.1320 C.ar    1  UNL1        0.0000
     22 C          -7.0472    0.2548   -0.7010 C.2     1  UNL1        0.0000
     23 SI         -6.4770    0.3694   -2.4667 Si      1  UNL1        0.0000
     24 C          -4.7259    0.1156   -1.8493 C.2     1  UNL1        0.0000
     25 C          -4.6597    0.0694   -0.4998 C.ar    1  UNL1        0.0000
     26 C          -3.4447   -0.1273    0.3659 C.ar    1  UNL1        0.0000
     27 C           0.3588   -0.2366    0.4009 C.ar    1  UNL1        0.0000
     28 C           1.4823   -0.6836    1.1204 C.ar    1  UNL1        0.0000
     29 N           2.7796   -0.5655    0.7385 N.ar    1  UNL1        0.0000
     30 H           8.5291    1.0521    0.2659 H       1  UNL1        0.0000
     31 H           8.5897   -0.7352    0.0848 H       1  UNL1        0.0000
     32 H           7.6621   -0.1147    2.5470 H       1  UNL1        0.0000
     33 H           5.0857   -0.1646    2.1387 H       1  UNL1        0.0000
     34 H           7.4001    0.4200   -2.8181 H       1  UNL1        0.0000
     35 H           2.2234    1.0167   -2.1811 H       1  UNL1        0.0000
     36 H          -0.1495    1.4128   -2.5372 H       1  UNL1        0.0000
     37 H          -2.4319    1.2282   -1.8416 H       1  UNL1        0.0000
     38 H          -0.6054   -1.2286    2.7820 H       1  UNL1        0.0000
     39 H          -2.8805   -1.3112    3.5348 H       1  UNL1        0.0000
     40 H          -5.2083   -0.8098    3.3131 H       1  UNL1        0.0000
     41 H          -7.1551   -0.2079    1.9741 H       1  UNL1        0.0000
     42 H          -8.0949    0.2537   -0.4456 H       1  UNL1        0.0000
     43 H          -6.9510   -0.7631   -3.2979 H       1  UNL1        0.0000
     44 H          -6.6749    1.7188   -3.0489 H       1  UNL1        0.0000
     45 H          -3.9374    0.0038   -2.5720 H       1  UNL1        0.0000
     46 H           1.3815   -1.1862    2.0773 H       1  UNL1        0.0000
@<TRIPOS>BOND
     1     1     2    1
     2     2     3    2
     3     3     4    1
     4     4     5   ar
     5     5     6   ar
     6     6     7   ar
     7     7     8   ar
     8     8     9    1
     9     9    10   ar
    10    10    11   ar
    11    11    12   ar
    12    12    13   ar
    13    13    14   ar
    14    14    15   ar
    15    15    16   ar
    16    16    17   ar
    17    17    18   ar
    18    18    19   ar
    19    19    20   ar
    20    20    21   ar
    21    21    22    2
    22    22    23    1
    23    23    24    1
    24    24    25    2
    25    25    26   ar
    26    15    27   ar
    27    27    28   ar
    28    28    29   ar
    29     5     1    1
    30    29     9   ar
    31     8     4   ar
    32    27    11   ar
    33    26    14   ar
    34    26    18   ar
    35    25    21   ar
    36     1    30    1
    37     1    31    1
    38     2    32    1
    39     3    33    1
    40     6    34    1
    41    10    35    1
    42    12    36    1
    43    13    37    1
    44    16    38    1
    45    17    39    1
    46    19    40    1
    47    20    41    1
    48    22    42    1
    49    23    43    1
    50    23    44    1
    51    24    45    1
    52    28    46    1
