@<TRIPOS>MOLECULE
*****
 42 48 0 0 0
SMALL
GASTEIGER

@<TRIPOS>ATOM
      1 SI         -3.0970   -1.0724   -3.3839 Si      1  UNL1        0.0000
      2 C          -3.7460   -0.5133   -1.7231 C.2     1  UNL1        0.0000
      3 C          -2.7413   -0.2316   -0.8648 C.ar    1  UNL1        0.0000
      4 C          -2.9172    0.2232    0.5319 C.ar    1  UNL1        0.0000
      5 C          -1.8108    0.4017    1.2940 C.ar    1  UNL1        0.0000
      6 C          -0.5198    0.1759    0.7206 C.ar    1  UNL1        0.0000
      7 S           0.9124    0.3943    1.6098 S.2     1  UNL1        0.0000
      8 C           1.9249   -0.0376    0.2839 C.ar    1  UNL1        0.0000
      9 C           1.1487   -0.3503   -0.8435 C.ar    1  UNL1        0.0000
     10 N           1.6993   -0.7249   -2.0338 N.ar    1  UNL1        0.0000
     11 C           3.0435   -0.7866   -2.0890 C.ar    1  UNL1        0.0000
     12 C           3.9251   -0.5065   -1.0567 C.ar    1  UNL1        0.0000
     13 C           5.3578   -0.6113   -1.2465 C.ar    1  UNL1        0.0000
     14 C           6.3282   -0.3457   -0.2534 C.ar    1  UNL1        0.0000
     15 C           5.7113    0.0296    0.9287 C.ar    1  UNL1        0.0000
     16 C           6.3405    0.3595    2.0979 C.ar    1  UNL1        0.0000
     17 O           5.4042    0.6735    3.0406 O.2     1  UNL1        0.0000
     18 C           4.1713    0.5402    2.4598 C.ar    1  UNL1        0.0000
     19 C           4.3027    0.1435    1.1518 C.ar    1  UNL1        0.0000
     20 C           3.3257   -0.1157    0.1791 C.ar    1  UNL1        0.0000
     21 C          -0.2529   -0.2249   -0.5779 C.ar    1  UNL1        0.0000
     22 C          -1.3800   -0.4549   -1.4404 C.ar    1  UNL1        0.0000
     23 C          -1.3732   -0.8767   -2.7196 C.2     1  UNL1        0.0000
     24 C          -4.1654    0.5122    1.1583 C.ar    1  UNL1        0.0000
     25 C          -4.7891    0.0703    2.3100 C.ar    1  UNL1        0.0000
     26 C          -6.0280    0.7483    2.4172 C.ar    1  UNL1        0.0000
     27 C          -6.1267    1.5941    1.3360 C.ar    1  UNL1        0.0000
     28 N          -4.9914    1.4490    0.5814 N.ar    1  UNL1        0.0000
     29 H          -3.4153   -0.0966   -4.4542 H       1  UNL1        0.0000
     30 H          -3.4488   -2.4819   -3.6792 H       1  UNL1        0.0000
     31 H          -4.8067   -0.4676   -1.5348 H       1  UNL1        0.0000
     32 H          -1.8813    0.7382    2.3249 H       1  UNL1        0.0000
     33 H           3.4192   -1.0919   -3.0642 H       1  UNL1        0.0000
     34 H           5.7271   -0.9183   -2.2277 H       1  UNL1        0.0000
     35 H           7.3929   -0.4307   -0.4178 H       1  UNL1        0.0000
     36 H           7.3693    0.4225    2.4227 H       1  UNL1        0.0000
     37 H           3.3454    0.7648    3.1180 H       1  UNL1        0.0000
     38 H          -0.5094   -1.1075   -3.3230 H       1  UNL1        0.0000
     39 H          -4.3959   -0.6687    2.9965 H       1  UNL1        0.0000
     40 H          -6.7659    0.6325    3.2004 H       1  UNL1        0.0000
     41 H          -6.9025    2.2874    1.0400 H       1  UNL1        0.0000
     42 H          -4.7851    1.9549   -0.2703 H       1  UNL1        0.0000
@<TRIPOS>BOND
     1     1     2    1
     2     2     3    2
     3     3     4   ar
     4     4     5   ar
     5     5     6   ar
     6     6     7   ar
     7     7     8   ar
     8     8     9   ar
     9     9    10   ar
    10    10    11   ar
    11    11    12   ar
    12    12    13   ar
    13    13    14   ar
    14    14    15   ar
    15    15    16   ar
    16    16    17   ar
    17    17    18   ar
    18    18    19   ar
    19    19    20   ar
    20     9    21   ar
    21    21    22   ar
    22    22    23    2
    23     4    24    1
    24    24    25   ar
    25    25    26   ar
    26    26    27   ar
    27    27    28   ar
    28    23     1    1
    29    28    24   ar
    30    22     3   ar
    31    21     6   ar
    32    20     8   ar
    33    20    12   ar
    34    19    15   ar
    35     1    29    1
    36     1    30    1
    37     2    31    1
    38     5    32    1
    39    11    33    1
    40    13    34    1
    41    14    35    1
    42    16    36    1
    43    18    37    1
    44    23    38    1
    45    25    39    1
    46    26    40    1
    47    27    41    1
    48    28    42    1
