@<TRIPOS>MOLECULE
*****
 41 47 0 0 0
SMALL
GASTEIGER

@<TRIPOS>ATOM
      1 C          -6.8300   -0.7722    0.9877 C.3     1  UNL1       -0.0081
      2 C          -5.7786   -1.8774    1.0020 C.2     1  UNL1       -0.0791
      3 C          -4.5388   -1.3804    0.7906 C.2     1  UNL1       -0.0568
      4 C          -4.6045    0.0318    0.6195 C.ar    1  UNL1       -0.0066
      5 C          -5.9683    0.4166    0.7338 C.ar    1  UNL1       -0.0289
      6 C          -6.1567    1.7601    0.5860 C.ar    1  UNL1       -0.0197
      7 S          -4.6527    2.5435    0.3068 S.2     1  UNL1       -0.0953
      8 C          -3.7253    1.0624    0.3836 C.ar    1  UNL1        0.0333
      9 C          -2.2842    1.0839    0.2085 C.ar    1  UNL1        0.0276
     10 C          -1.4796    2.1783   -0.0288 C.ar    1  UNL1       -0.0387
     11 C          -0.0828    1.8650   -0.1554 C.ar    1  UNL1       -0.0096
     12 C           0.9943    2.7386   -0.3967 C.ar    1  UNL1       -0.0528
     13 C           2.2988    2.2531   -0.4902 C.ar    1  UNL1       -0.0513
     14 C           2.6129    0.8980   -0.3533 C.ar    1  UNL1        0.0098
     15 C           3.9954    0.5057   -0.4681 C.ar    1  UNL1        0.0793
     16 N           4.9448    1.4435   -0.7023 N.ar    1  UNL1       -0.2543
     17 C           6.2471    1.0909   -0.8127 C.ar    1  UNL1        0.0283
     18 C           6.7096   -0.2012   -0.7017 C.ar    1  UNL1       -0.0430
     19 C           5.7765   -1.1942   -0.4624 C.ar    1  UNL1       -0.0505
     20 C           4.4070   -0.8508   -0.3428 C.ar    1  UNL1        0.0092
     21 C           3.3363   -1.7494   -0.0991 C.ar    1  UNL1       -0.0011
     22 C           3.5172   -3.1062    0.0539 C.ar    1  UNL1       -0.0160
     23 S           2.0413   -3.9191    0.3349 S.2     1  UNL1       -0.1038
     24 C           1.1540   -2.4525    0.2524 C.ar    1  UNL1       -0.0160
     25 C           1.9457   -1.3502    0.0159 C.ar    1  UNL1       -0.0014
     26 C           1.5104   -0.0073   -0.1048 C.ar    1  UNL1        0.0067
     27 C           0.1763    0.4958   -0.0100 C.ar    1  UNL1        0.0283
     28 S          -1.3217   -0.3181    0.2742 S.2     1  UNL1       -0.0871
     29 H          -7.5521   -0.9310    0.1821 H       1  UNL1        0.0356
     30 H          -7.3403   -0.7065    1.9526 H       1  UNL1        0.0356
     31 H          -6.0109   -2.9198    1.1619 H       1  UNL1        0.0575
     32 H          -3.6396   -1.9772    0.7586 H       1  UNL1        0.0621
     33 H          -7.0766    2.3265    0.6242 H       1  UNL1        0.0696
     34 H          -1.8558    3.1906   -0.1143 H       1  UNL1        0.0635
     35 H           0.8154    3.8054   -0.5127 H       1  UNL1        0.0624
     36 H           3.0887    2.9817   -0.6785 H       1  UNL1        0.0624
     37 H           6.9300    1.9151   -1.0005 H       1  UNL1        0.0830
     38 H           7.7648   -0.4274   -0.7988 H       1  UNL1        0.0633
     39 H           6.1134   -2.2214   -0.3704 H       1  UNL1        0.0625
     40 H           4.4280   -3.6861    0.0195 H       1  UNL1        0.0700
     41 H           0.0904   -2.5380    0.3905 H       1  UNL1        0.0700
@<TRIPOS>BOND
     1     1     2    1
     2     2     3    2
     3     3     4    1
     4     4     5   ar
     5     5     6   ar
     6     6     7   ar
     7     7     8   ar
     8     8     9    1
     9     9    10   ar
    10    10    11   ar
    11    11    12   ar
    12    12    13   ar
    13    13    14   ar
    14    14    15   ar
    15    15    16   ar
    16    16    17   ar
    17    17    18   ar
    18    18    19   ar
    19    19    20   ar
    20    20    21   ar
    21    21    22   ar
    22    22    23   ar
    23    23    24   ar
    24    24    25   ar
    25    25    26   ar
    26    26    27   ar
    27    27    28   ar
    28     5     1    1
    29    28     9   ar
    30     8     4   ar
    31    27    11   ar
    32    26    14   ar
    33    20    15   ar
    34    25    21   ar
    35     1    29    1
    36     1    30    1
    37     2    31    1
    38     3    32    1
    39     6    33    1
    40    10    34    1
    41    12    35    1
    42    13    36    1
    43    17    37    1
    44    18    38    1
    45    19    39    1
    46    22    40    1
    47    24    41    1
