@<TRIPOS>MOLECULE
*****
 42 48 0 0 0
SMALL
GASTEIGER

@<TRIPOS>ATOM
      1 C           6.6089    0.2438   -0.4721 C.3     1  UNL1       -0.0081
      2 C           5.7167    1.3337   -1.0762 C.2     1  UNL1       -0.0791
      3 C           4.4073    1.0797   -0.8504 C.2     1  UNL1       -0.0568
      4 C           4.2850   -0.1295   -0.1190 C.ar    1  UNL1       -0.0070
      5 C           5.5770   -0.6524    0.1230 C.ar    1  UNL1       -0.0289
      6 C           5.5434   -1.8244    0.8272 C.ar    1  UNL1       -0.0197
      7 S           3.9087   -2.2691    1.1768 S.2     1  UNL1       -0.0958
      8 C           3.2581   -0.8709    0.3904 C.ar    1  UNL1        0.0274
      9 C           1.8291   -0.6678    0.3254 C.ar    1  UNL1        0.0006
     10 C           1.0567   -0.8061   -0.8427 C.ar    1  UNL1       -0.0451
     11 C          -0.3664   -0.5877   -0.9247 C.ar    1  UNL1       -0.0160
     12 C          -0.9614   -0.7769   -2.1689 C.ar    1  UNL1       -0.0534
     13 C          -2.3292   -0.5922   -2.3611 C.ar    1  UNL1       -0.0534
     14 C          -3.1718   -0.2145   -1.3132 C.ar    1  UNL1       -0.0166
     15 C          -4.5437   -0.0524   -1.5845 C.ar    1  UNL1       -0.0458
     16 C          -5.4547    0.3202   -0.5744 C.ar    1  UNL1       -0.0102
     17 C          -6.8717    0.5394   -0.6197 C.ar    1  UNL1       -0.0470
     18 C          -7.3951    0.8922    0.6021 C.ar    1  UNL1       -0.0232
     19 S          -6.1952    0.9626    1.8116 S.2     1  UNL1       -0.0966
     20 C          -4.9496    0.5200    0.7048 C.ar    1  UNL1        0.0199
     21 C          -3.5752    0.3606    0.9872 C.ar    1  UNL1       -0.0391
     22 C          -2.6465   -0.0065   -0.0178 C.ar    1  UNL1       -0.0084
     23 C          -1.2119   -0.1885    0.1816 C.ar    1  UNL1        0.0006
     24 C          -0.3805   -0.0387    1.3459 C.ar    1  UNL1        0.0287
     25 C          -0.7146    0.3561    2.6199 C.ar    1  UNL1        0.1000
     26 O           0.3891    0.3815    3.4261 O.2     1  UNL1       -0.4698
     27 C           1.4549    0.0025    2.6704 C.ar    1  UNL1        0.1000
     28 C           1.0378   -0.2680    1.3932 C.ar    1  UNL1        0.0287
     29 H           7.2727    0.6626    0.2892 H       1  UNL1        0.0356
     30 H           7.1870   -0.2611   -1.2509 H       1  UNL1        0.0356
     31 H           6.1017    2.1911   -1.6078 H       1  UNL1        0.0575
     32 H           3.5772    1.6956   -1.1673 H       1  UNL1        0.0621
     33 H           6.3632   -2.4482    1.1546 H       1  UNL1        0.0696
     34 H           1.5874   -1.1080   -1.7489 H       1  UNL1        0.0630
     35 H          -0.3642   -1.0763   -3.0293 H       1  UNL1        0.0624
     36 H          -2.7317   -0.7552   -3.3600 H       1  UNL1        0.0624
     37 H          -4.9259   -0.2161   -2.5899 H       1  UNL1        0.0630
     38 H          -7.4748    0.4399   -1.5138 H       1  UNL1        0.0629
     39 H          -8.4262    1.1115    0.8431 H       1  UNL1        0.0694
     40 H          -3.2635    0.5239    2.0069 H       1  UNL1        0.0635
     41 H          -1.6149    0.6538    3.1311 H       1  UNL1        0.1036
     42 H           2.4070   -0.0164    3.1823 H       1  UNL1        0.1036
@<TRIPOS>BOND
     1     1     2    1
     2     2     3    2
     3     3     4    1
     4     4     5   ar
     5     5     6   ar
     6     6     7   ar
     7     7     8   ar
     8     8     9    1
     9     9    10   ar
    10    10    11   ar
    11    11    12   ar
    12    12    13   ar
    13    13    14   ar
    14    14    15   ar
    15    15    16   ar
    16    16    17   ar
    17    17    18   ar
    18    18    19   ar
    19    19    20   ar
    20    20    21   ar
    21    21    22   ar
    22    22    23   ar
    23    23    24   ar
    24    24    25   ar
    25    25    26   ar
    26    26    27   ar
    27    27    28   ar
    28     5     1    1
    29    28     9   ar
    30     8     4   ar
    31    23    11   ar
    32    28    24   ar
    33    22    14   ar
    34    20    16   ar
    35     1    29    1
    36     1    30    1
    37     2    31    1
    38     3    32    1
    39     6    33    1
    40    10    34    1
    41    12    35    1
    42    13    36    1
    43    15    37    1
    44    17    38    1
    45    18    39    1
    46    21    40    1
    47    25    41    1
    48    27    42    1
