@<TRIPOS>MOLECULE
*****
 41 47 0 0 0
SMALL
GASTEIGER

@<TRIPOS>ATOM
      1 C          -6.7997   -0.7853    0.4838 C.3     1  UNL1        0.0000
      2 C          -5.8401   -1.4041    1.5059 C.2     1  UNL1        0.0000
      3 C          -4.5507   -1.1371    1.1961 C.2     1  UNL1        0.0000
      4 C          -4.5060   -0.3587    0.0107 C.ar    1  UNL1        0.0000
      5 C          -5.8283   -0.1312   -0.4382 C.ar    1  UNL1        0.0000
      6 C          -5.8715    0.6153   -1.5832 C.ar    1  UNL1        0.0000
      7 S          -4.2717    1.0361   -2.0875 S.2     1  UNL1        0.0000
      8 C          -3.5300    0.1931   -0.7691 C.ar    1  UNL1        0.0000
      9 C          -2.0874    0.2001   -0.6143 C.ar    1  UNL1        0.0000
     10 C          -1.4482    0.8983    0.4216 C.ar    1  UNL1        0.0000
     11 C          -0.0407    0.9179    0.6083 C.ar    1  UNL1        0.0000
     12 C           0.4880    1.6470    1.6618 C.ar    1  UNL1        0.0000
     13 N           1.8004    1.7519    1.9564 N.ar    1  UNL1        0.0000
     14 C           2.6851    1.1129    1.1835 C.ar    1  UNL1        0.0000
     15 C           4.0234    1.2546    1.5283 C.ar    1  UNL1        0.0000
     16 C           5.0194    0.6327    0.7910 C.ar    1  UNL1        0.0000
     17 C           6.4613    0.7177    1.0697 C.2     1  UNL1        0.0000
     18 C           7.2229    0.0226    0.2052 C.2     1  UNL1        0.0000
     19 SI          6.2171   -0.8609   -1.1162 Si      1  UNL1        0.0000
     20 C           4.6719   -0.1508   -0.3191 C.ar    1  UNL1        0.0000
     21 C           3.3382   -0.3065   -0.6823 C.ar    1  UNL1        0.0000
     22 C           2.3069    0.3245    0.0641 C.ar    1  UNL1        0.0000
     23 C           0.8924    0.2306   -0.2227 C.ar    1  UNL1        0.0000
     24 C           0.2624   -0.5147   -1.3023 C.ar    1  UNL1        0.0000
     25 N           0.8836   -1.2611   -2.2346 N.ar    1  UNL1        0.0000
     26 S          -0.2727   -1.9041   -3.2231 S.2     1  UNL1        0.0000
     27 N          -1.6369   -1.2856   -2.5318 N.ar    1  UNL1        0.0000
     28 C          -1.2465   -0.5273   -1.4918 C.ar    1  UNL1        0.0000
     29 H          -7.4608   -0.0576    0.9624 H       1  UNL1        0.0000
     30 H          -7.3825   -1.5605   -0.0213 H       1  UNL1        0.0000
     31 H          -6.1695   -1.9835    2.3556 H       1  UNL1        0.0000
     32 H          -3.6852   -1.4678    1.7526 H       1  UNL1        0.0000
     33 H          -6.7296    0.9421   -2.1535 H       1  UNL1        0.0000
     34 H          -2.0803    1.4614    1.1127 H       1  UNL1        0.0000
     35 H          -0.1534    2.2025    2.3438 H       1  UNL1        0.0000
     36 H           4.2828    1.8642    2.3898 H       1  UNL1        0.0000
     37 H           6.8447    1.2945    1.9010 H       1  UNL1        0.0000
     38 H           8.2992   -0.0542    0.2211 H       1  UNL1        0.0000
     39 H           6.4747   -0.3125   -2.4709 H       1  UNL1        0.0000
     40 H           6.3077   -2.3368   -0.9899 H       1  UNL1        0.0000
     41 H           3.1096   -0.9198   -1.5479 H       1  UNL1        0.0000
@<TRIPOS>BOND
     1     1     2    1
     2     2     3    2
     3     3     4    1
     4     4     5   ar
     5     5     6   ar
     6     6     7   ar
     7     7     8   ar
     8     8     9    1
     9     9    10   ar
    10    10    11   ar
    11    11    12   ar
    12    12    13   ar
    13    13    14   ar
    14    14    15   ar
    15    15    16   ar
    16    16    17    1
    17    17    18    2
    18    18    19    1
    19    19    20    1
    20    20    21   ar
    21    21    22   ar
    22    22    23   ar
    23    23    24   ar
    24    24    25   ar
    25    25    26   ar
    26    26    27   ar
    27    27    28   ar
    28     5     1    1
    29    28     9   ar
    30     8     4   ar
    31    23    11   ar
    32    28    24   ar
    33    22    14   ar
    34    20    16   ar
    35     1    29    1
    36     1    30    1
    37     2    31    1
    38     3    32    1
    39     6    33    1
    40    10    34    1
    41    12    35    1
    42    15    36    1
    43    17    37    1
    44    18    38    1
    45    19    39    1
    46    19    40    1
    47    21    41    1
