@<TRIPOS>MOLECULE
*****
 39 45 0 0 0
SMALL
GASTEIGER

@<TRIPOS>ATOM
      1 C           6.9872    0.3217   -0.3894 C.3     1  UNL1       -0.0081
      2 C           6.4413   -0.8282   -1.2338 C.2     1  UNL1       -0.0791
      3 C           5.0911   -0.8832   -1.1766 C.2     1  UNL1       -0.0568
      4 C           4.6034    0.1578   -0.3399 C.ar    1  UNL1       -0.0057
      5 C           5.7179    0.8926    0.1434 C.ar    1  UNL1       -0.0288
      6 C           5.3580    1.9240    0.9632 C.ar    1  UNL1       -0.0196
      7 S           3.6449    1.9806    1.1330 S.2     1  UNL1       -0.0943
      8 C           3.3831    0.6055    0.0945 C.ar    1  UNL1        0.0429
      9 C           2.0556    0.1223   -0.1794 C.ar    1  UNL1        0.0563
     10 C           1.6135   -0.9342   -0.9584 C.ar    1  UNL1       -0.0098
     11 C           0.2007   -0.9756   -0.8868 C.ar    1  UNL1        0.0912
     12 N          -0.6649   -1.8288   -1.4787 N.ar    1  UNL1       -0.2527
     13 C          -1.9735   -1.5929   -1.2017 C.ar    1  UNL1        0.0382
     14 C          -2.4978   -0.5729   -0.3799 C.ar    1  UNL1        0.0303
     15 C          -1.5553    0.2771    0.2039 C.ar    1  UNL1        0.0984
     16 N          -1.8234    1.3193    1.0240 N.ar    1  UNL1       -0.2522
     17 C          -3.1268    1.5482    1.2953 C.ar    1  UNL1        0.0361
     18 C          -4.1967    0.8030    0.8014 C.ar    1  UNL1        0.0031
     19 C          -5.5267    1.1522    1.1670 C.ar    1  UNL1       -0.0504
     20 C          -6.6660    0.4656    0.7230 C.ar    1  UNL1       -0.0329
     21 C          -6.4291   -0.6278   -0.1341 C.ar    1  UNL1        0.1005
     22 N          -7.3819   -1.4088   -0.6642 N.ar    1  UNL1       -0.1908
     23 S          -6.6032   -2.5402   -1.5902 S.2     1  UNL1        0.1165
     24 N          -5.0263   -2.0893   -1.3594 N.ar    1  UNL1       -0.1901
     25 C          -5.0273   -1.0226   -0.5400 C.ar    1  UNL1        0.1083
     26 C          -3.8740   -0.2910   -0.0626 C.ar    1  UNL1        0.0224
     27 C          -0.2061    0.0581   -0.0630 C.ar    1  UNL1        0.0917
     28 N           0.9264    0.7090    0.3539 N.ar    1  UNL1       -0.3508
     29 H           7.6319   -0.0538    0.4101 H       1  UNL1        0.0356
     30 H           7.5271    1.0403   -1.0120 H       1  UNL1        0.0356
     31 H           7.0671   -1.5028   -1.7989 H       1  UNL1        0.0575
     32 H           4.4806   -1.6099   -1.6908 H       1  UNL1        0.0621
     33 H           5.9869    2.6425    1.4696 H       1  UNL1        0.0696
     34 H           2.2222   -1.6186   -1.5286 H       1  UNL1        0.0660
     35 H          -2.6317   -2.3015   -1.6977 H       1  UNL1        0.0836
     36 H          -3.2913    2.3958    1.9584 H       1  UNL1        0.0836
     37 H          -5.6885    2.0033    1.8325 H       1  UNL1        0.0625
     38 H          -7.6686    0.7525    1.0169 H       1  UNL1        0.0640
     39 H           0.9203    1.5108    0.9701 H       1  UNL1        0.1660
@<TRIPOS>BOND
     1     1     2    1
     2     2     3    2
     3     3     4    1
     4     4     5   ar
     5     5     6   ar
     6     6     7   ar
     7     7     8   ar
     8     8     9    1
     9     9    10   ar
    10    10    11   ar
    11    11    12   ar
    12    12    13   ar
    13    13    14   ar
    14    14    15   ar
    15    15    16   ar
    16    16    17   ar
    17    17    18   ar
    18    18    19   ar
    19    19    20   ar
    20    20    21   ar
    21    21    22   ar
    22    22    23   ar
    23    23    24   ar
    24    24    25   ar
    25    25    26   ar
    26    15    27   ar
    27    27    28   ar
    28     5     1    1
    29    28     9   ar
    30     8     4   ar
    31    27    11   ar
    32    26    14   ar
    33    26    18   ar
    34    25    21   ar
    35     1    29    1
    36     1    30    1
    37     2    31    1
    38     3    32    1
    39     6    33    1
    40    10    34    1
    41    13    35    1
    42    17    36    1
    43    19    37    1
    44    20    38    1
    45    28    39    1
