@<TRIPOS>MOLECULE
*****
 46 53 0 0 0
SMALL
GASTEIGER

@<TRIPOS>ATOM
      1 C           6.6699    0.5618    0.7635 C.3     1  UNL1        0.0000
      2 C           5.6618    0.5570    1.9170 C.2     1  UNL1        0.0000
      3 C           4.3974    0.3960    1.4642 C.2     1  UNL1        0.0000
      4 C           4.4163    0.2810    0.0494 C.ar    1  UNL1        0.0000
      5 C           5.7548    0.3749   -0.3980 C.ar    1  UNL1        0.0000
      6 C           5.8599    0.2709   -1.7564 C.ar    1  UNL1        0.0000
      7 S           4.3002    0.0514   -2.4661 S.2     1  UNL1        0.0000
      8 C           3.4753    0.1123   -0.9312 C.ar    1  UNL1        0.0000
      9 C           2.0554   -0.0400   -0.8416 C.ar    1  UNL1        0.0000
     10 C           1.2877    0.9371   -1.3686 C.ar    1  UNL1        0.0000
     11 C          -0.1854    0.9440   -1.2804 C.ar    1  UNL1        0.0000
     12 N          -0.7629    1.9815   -1.9295 N.ar    1  UNL1        0.0000
     13 C          -2.1008    2.1180   -1.8118 C.ar    1  UNL1        0.0000
     14 C          -2.9092    1.3344   -0.9836 C.ar    1  UNL1        0.0000
     15 C          -4.3237    1.6362   -0.8994 C.ar    1  UNL1        0.0000
     16 S          -5.2894    2.7980   -1.7658 S.2     1  UNL1        0.0000
     17 C          -6.7305    2.3571   -0.9452 C.ar    1  UNL1        0.0000
     18 C          -6.5276    1.3646   -0.0126 C.ar    1  UNL1        0.0000
     19 C          -5.1760    0.9854   -0.0213 C.ar    1  UNL1        0.0000
     20 C          -4.5716    0.0301    0.8336 C.ar    1  UNL1        0.0000
     21 C          -5.1138   -0.6705    1.8642 C.ar    1  UNL1        0.0000
     22 O          -4.0960   -1.3621    2.4617 O.2     1  UNL1        0.0000
     23 C          -2.9454   -1.0696    1.7733 C.ar    1  UNL1        0.0000
     24 C          -3.2030   -0.2547    0.6904 C.ar    1  UNL1        0.0000
     25 C          -2.2695    0.2842   -0.2434 C.ar    1  UNL1        0.0000
     26 C          -0.8913   -0.0012   -0.5079 C.ar    1  UNL1        0.0000
     27 C          -0.1123   -1.2016   -0.1083 C.ar    1  UNL1        0.0000
     28 C          -0.6041   -2.4210    0.1973 C.2     1  UNL1        0.0000
     29 SI          0.7540   -3.6478    0.5929 Si      1  UNL1        0.0000
     30 C           1.9803   -2.3322    0.1257 C.2     1  UNL1        0.0000
     31 C           1.3698   -1.1838   -0.2361 C.ar    1  UNL1        0.0000
     32 H           7.2003    1.5167    0.7148 H       1  UNL1        0.0000
     33 H           7.3772   -0.2662    0.8621 H       1  UNL1        0.0000
     34 H           5.9418    0.6718    2.9534 H       1  UNL1        0.0000
     35 H           3.5041    0.3604    2.0720 H       1  UNL1        0.0000
     36 H           6.7440    0.3055   -2.3771 H       1  UNL1        0.0000
     37 H           1.7222    1.8086   -1.8502 H       1  UNL1        0.0000
     38 H          -2.5004    2.9396   -2.4006 H       1  UNL1        0.0000
     39 H          -7.6577    2.8603   -1.1844 H       1  UNL1        0.0000
     40 H          -7.3122    0.9638    0.6162 H       1  UNL1        0.0000
     41 H          -6.0880   -0.7687    2.3203 H       1  UNL1        0.0000
     42 H          -2.0556   -1.5024    2.2061 H       1  UNL1        0.0000
     43 H          -1.6308   -2.7464    0.2097 H       1  UNL1        0.0000
     44 H           0.7925   -3.9797    2.0372 H       1  UNL1        0.0000
     45 H           0.7576   -4.8004   -0.3387 H       1  UNL1        0.0000
     46 H           3.0350   -2.5542    0.0684 H       1  UNL1        0.0000
@<TRIPOS>BOND
     1     1     2    1
     2     2     3    2
     3     3     4    1
     4     4     5   ar
     5     5     6   ar
     6     6     7   ar
     7     7     8   ar
     8     8     9    1
     9     9    10   ar
    10    10    11   ar
    11    11    12   ar
    12    12    13   ar
    13    13    14   ar
    14    14    15   ar
    15    15    16   ar
    16    16    17   ar
    17    17    18   ar
    18    18    19   ar
    19    19    20   ar
    20    20    21   ar
    21    21    22   ar
    22    22    23   ar
    23    23    24   ar
    24    24    25   ar
    25    25    26   ar
    26    26    27   ar
    27    27    28    2
    28    28    29    1
    29    29    30    1
    30    30    31    2
    31     5     1    1
    32    31     9   ar
    33     8     4   ar
    34    26    11   ar
    35    31    27   ar
    36    25    14   ar
    37    19    15   ar
    38    24    20   ar
    39     1    32    1
    40     1    33    1
    41     2    34    1
    42     3    35    1
    43     6    36    1
    44    10    37    1
    45    13    38    1
    46    17    39    1
    47    18    40    1
    48    21    41    1
    49    23    42    1
    50    28    43    1
    51    29    44    1
    52    29    45    1
    53    30    46    1
