@<TRIPOS>MOLECULE
*****
 46 53 0 0 0
SMALL
GASTEIGER

@<TRIPOS>ATOM
      1 C           6.7527    1.5282    0.8337 C.3     1  UNL1        0.0000
      2 C           6.0926    1.7319   -0.5337 C.2     1  UNL1        0.0000
      3 C           4.8439    1.2126   -0.5594 C.2     1  UNL1        0.0000
      4 C           4.5480    0.6397    0.7051 C.ar    1  UNL1        0.0000
      5 C           5.6644    0.8107    1.5566 C.ar    1  UNL1        0.0000
      6 C           5.4591    0.2813    2.7997 C.ar    1  UNL1        0.0000
      7 S           3.8864   -0.4275    2.9004 S.2     1  UNL1        0.0000
      8 C           3.4768   -0.0071    1.2601 C.ar    1  UNL1        0.0000
      9 C           2.2097   -0.3639    0.7001 C.ar    1  UNL1        0.0000
     10 C           1.1320    0.3470    1.1237 C.ar    1  UNL1        0.0000
     11 C          -0.1554    0.0526    0.5739 C.ar    1  UNL1        0.0000
     12 O          -1.3362    0.6936    0.9129 O.2     1  UNL1        0.0000
     13 C          -2.2966    0.0967    0.1501 C.ar    1  UNL1        0.0000
     14 C          -1.7544   -0.8587   -0.6222 C.ar    1  UNL1        0.0000
     15 O          -2.7136   -1.4559   -1.3869 O.2     1  UNL1        0.0000
     16 C          -3.8948   -0.8169   -1.0471 C.ar    1  UNL1        0.0000
     17 C          -5.1847   -1.1076   -1.5973 C.ar    1  UNL1        0.0000
     18 C          -6.2416   -0.3898   -1.1578 C.ar    1  UNL1        0.0000
     19 C          -6.0668    0.6546   -0.1471 C.ar    1  UNL1        0.0000
     20 C          -7.0597    1.4174    0.3487 C.2     1  UNL1        0.0000
     21 SI         -6.3957    2.6298    1.6227 Si      1  UNL1        0.0000
     22 C          -4.6851    1.9305    1.3414 C.2     1  UNL1        0.0000
     23 C          -4.7221    0.9515    0.4209 C.ar    1  UNL1        0.0000
     24 C          -3.6615    0.1638   -0.0831 C.ar    1  UNL1        0.0000
     25 C          -0.3892   -0.9253   -0.3884 C.ar    1  UNL1        0.0000
     26 C           0.6693   -1.7121   -0.8911 C.ar    1  UNL1        0.0000
     27 C           0.6194   -2.6929   -1.8095 C.2     1  UNL1        0.0000
     28 SI          2.3172   -3.4119   -2.0950 Si      1  UNL1        0.0000
     29 C           2.9933   -2.2080   -0.8309 C.2     1  UNL1        0.0000
     30 C           2.0191   -1.4211   -0.3257 C.ar    1  UNL1        0.0000
     31 H           7.6540    0.9158    0.7429 H       1  UNL1        0.0000
     32 H           6.9865    2.4894    1.2996 H       1  UNL1        0.0000
     33 H           6.5763    2.2304   -1.3604 H       1  UNL1        0.0000
     34 H           4.1671    1.2255   -1.4024 H       1  UNL1        0.0000
     35 H           6.1250    0.2602    3.6508 H       1  UNL1        0.0000
     36 H           1.2057    1.1407    1.8594 H       1  UNL1        0.0000
     37 H          -5.2836   -1.8862   -2.3437 H       1  UNL1        0.0000
     38 H          -7.2371   -0.5761   -1.5466 H       1  UNL1        0.0000
     39 H          -8.1067    1.3869    0.0937 H       1  UNL1        0.0000
     40 H          -6.5197    4.0357    1.1688 H       1  UNL1        0.0000
     41 H          -6.9130    2.3454    2.9827 H       1  UNL1        0.0000
     42 H          -3.8190    2.2962    1.8704 H       1  UNL1        0.0000
     43 H          -0.2536   -3.0535   -2.3310 H       1  UNL1        0.0000
     44 H           2.8274   -3.1347   -3.4593 H       1  UNL1        0.0000
     45 H           2.4220   -4.8204   -1.6450 H       1  UNL1        0.0000
     46 H           4.0421   -2.1985   -0.5782 H       1  UNL1        0.0000
@<TRIPOS>BOND
     1     1     2    1
     2     2     3    2
     3     3     4    1
     4     4     5   ar
     5     5     6   ar
     6     6     7   ar
     7     7     8   ar
     8     8     9    1
     9     9    10   ar
    10    10    11   ar
    11    11    12   ar
    12    12    13   ar
    13    13    14   ar
    14    14    15   ar
    15    15    16   ar
    16    16    17   ar
    17    17    18   ar
    18    18    19   ar
    19    19    20    2
    20    20    21    1
    21    21    22    1
    22    22    23    2
    23    23    24   ar
    24    14    25   ar
    25    25    26   ar
    26    26    27    2
    27    27    28    1
    28    28    29    1
    29    29    30    2
    30     5     1    1
    31    30     9   ar
    32     8     4   ar
    33    25    11   ar
    34    30    26   ar
    35    24    13   ar
    36    24    16   ar
    37    23    19   ar
    38     1    31    1
    39     1    32    1
    40     2    33    1
    41     3    34    1
    42     6    35    1
    43    10    36    1
    44    17    37    1
    45    18    38    1
    46    20    39    1
    47    21    40    1
    48    21    41    1
    49    22    42    1
    50    27    43    1
    51    28    44    1
    52    28    45    1
    53    29    46    1
