@<TRIPOS>MOLECULE
*****
 46 53 0 0 0
SMALL
GASTEIGER

@<TRIPOS>ATOM
      1 C           7.6557   -0.1438   -0.4607 C.3     1  UNL1       -0.0081
      2 C           7.1605    1.1550    0.1730 C.2     1  UNL1       -0.0791
      3 C           5.8103    1.1839    0.2482 C.2     1  UNL1       -0.0567
      4 C           5.2735   -0.0170   -0.2922 C.ar    1  UNL1       -0.0041
      5 C           6.3579   -0.8272   -0.7230 C.ar    1  UNL1       -0.0288
      6 C           5.9524   -2.0145   -1.2632 C.ar    1  UNL1       -0.0196
      7 S           4.2336   -2.1254   -1.2370 S.2     1  UNL1       -0.0927
      8 C           4.0328   -0.5639   -0.4929 C.ar    1  UNL1        0.0618
      9 C           2.7106   -0.0665   -0.1983 C.ar    1  UNL1        0.1439
     10 C           2.3451    1.1312    0.3851 C.ar    1  UNL1       -0.0009
     11 C           0.9315    1.0960    0.4317 C.ar    1  UNL1        0.0591
     12 S          -0.3995    2.0448    0.9405 S.2     1  UNL1       -0.0843
     13 C          -1.5474    0.8229    0.4136 C.ar    1  UNL1        0.0324
     14 C          -0.8934   -0.2920   -0.1435 C.ar    1  UNL1        0.0404
     15 C           0.5112   -0.0636   -0.0983 C.ar    1  UNL1        0.1510
     16 O           1.5854   -0.8033   -0.4966 O.2     1  UNL1       -0.4531
     17 C          -1.6627   -1.3932   -0.6302 C.ar    1  UNL1       -0.0055
     18 C          -0.9799   -2.5040   -1.1864 C.ar    1  UNL1       -0.0533
     19 C          -1.6674   -3.6085   -1.6783 C.ar    1  UNL1       -0.0611
     20 C          -3.0485   -3.6253   -1.6245 C.ar    1  UNL1       -0.0611
     21 C          -3.7370   -2.5370   -1.0787 C.ar    1  UNL1       -0.0534
     22 C          -3.0814   -1.3848   -0.5627 C.ar    1  UNL1       -0.0094
     23 C          -3.7613   -0.2607   -0.0003 C.ar    1  UNL1       -0.0084
     24 C          -5.2210   -0.2104    0.0887 C.ar    1  UNL1       -0.0528
     25 C          -6.0093    0.8350    0.6189 C.ar    1  UNL1       -0.0520
     26 C          -5.1990    1.8550    1.0657 C.ar    1  UNL1        0.0000
     27 C          -5.6667    3.0108    1.6340 C.ar    1  UNL1        0.0094
     28 N          -4.5642    3.7665    1.9426 N.ar    1  UNL1       -0.3659
     29 C          -3.4139    3.0971    1.5742 C.ar    1  UNL1        0.0100
     30 C          -3.7701    1.8883    1.0176 C.ar    1  UNL1        0.0082
     31 C          -2.9664    0.8468    0.4885 C.ar    1  UNL1        0.0063
     32 H           8.2783   -0.7068    0.2401 H       1  UNL1        0.0356
     33 H           8.2041    0.0577   -1.3850 H       1  UNL1        0.0356
     34 H           7.8197    1.9403    0.5122 H       1  UNL1        0.0575
     35 H           5.2370    2.0010    0.6586 H       1  UNL1        0.0621
     36 H           6.5498   -2.8187   -1.6690 H       1  UNL1        0.0696
     37 H           2.9844    1.9257    0.7328 H       1  UNL1        0.0667
     38 H           0.1056   -2.5274   -1.2460 H       1  UNL1        0.0624
     39 H          -1.1213   -4.4477   -2.0999 H       1  UNL1        0.0618
     40 H          -3.5995   -4.4814   -2.0050 H       1  UNL1        0.0618
     41 H          -4.8193   -2.6211   -1.0701 H       1  UNL1        0.0624
     42 H          -5.8026   -1.0521   -0.2838 H       1  UNL1        0.0624
     43 H          -7.0885    0.8113    0.6559 H       1  UNL1        0.0624
     44 H          -6.6650    3.3677    1.8476 H       1  UNL1        0.0813
     45 H          -4.5864    4.6802    2.3764 H       1  UNL1        0.1648
     46 H          -2.4678    3.5793    1.7603 H       1  UNL1        0.0813
@<TRIPOS>BOND
     1     1     2    1
     2     2     3    2
     3     3     4    1
     4     4     5   ar
     5     5     6   ar
     6     6     7   ar
     7     7     8   ar
     8     8     9    1
     9     9    10   ar
    10    10    11   ar
    11    11    12   ar
    12    12    13   ar
    13    13    14   ar
    14    14    15   ar
    15    15    16   ar
    16    14    17   ar
    17    17    18   ar
    18    18    19   ar
    19    19    20   ar
    20    20    21   ar
    21    21    22   ar
    22    22    23   ar
    23    23    24   ar
    24    24    25   ar
    25    25    26   ar
    26    26    27   ar
    27    27    28   ar
    28    28    29   ar
    29    29    30   ar
    30    30    31   ar
    31     5     1    1
    32    16     9   ar
    33    22    17   ar
    34    31    23   ar
    35     8     4   ar
    36    15    11   ar
    37    30    26   ar
    38    31    13   ar
    39     1    32    1
    40     1    33    1
    41     2    34    1
    42     3    35    1
    43     6    36    1
    44    10    37    1
    45    18    38    1
    46    19    39    1
    47    20    40    1
    48    21    41    1
    49    24    42    1
    50    25    43    1
    51    27    44    1
    52    28    45    1
    53    29    46    1
