@<TRIPOS>MOLECULE
*****
 42 49 0 0 0
SMALL
GASTEIGER

@<TRIPOS>ATOM
      1 C           7.3652    0.2305    0.4276 C.3     1  UNL1       -0.0081
      2 C           6.4377    0.1370    1.6401 C.2     1  UNL1       -0.0791
      3 C           5.1374    0.1791    1.2702 C.2     1  UNL1       -0.0568
      4 C           5.0489    0.2959   -0.1436 C.ar    1  UNL1       -0.0066
      5 C           6.3641    0.3368   -0.6717 C.ar    1  UNL1       -0.0289
      6 C           6.3825    0.4680   -2.0317 C.ar    1  UNL1       -0.0197
      7 S           4.7727    0.5462   -2.6476 S.2     1  UNL1       -0.0953
      8 C           4.0484    0.3896   -1.0743 C.ar    1  UNL1        0.0333
      9 C           2.6144    0.3728   -0.9136 C.ar    1  UNL1        0.0281
     10 C           1.7046    1.1663   -1.5822 C.ar    1  UNL1       -0.0320
     11 C           0.3658    0.8723   -1.1851 C.ar    1  UNL1        0.0282
     12 S          -1.2024    1.5055   -1.6333 S.2     1  UNL1       -0.0870
     13 C          -2.0368    0.4303   -0.5492 C.ar    1  UNL1        0.0300
     14 C          -1.0710   -0.3403    0.0804 C.ar    1  UNL1        0.0148
     15 C          -1.4557   -1.3227    1.0339 C.ar    1  UNL1        0.0297
     16 C          -0.7584   -2.2097    1.7952 C.ar    1  UNL1        0.1000
     17 O          -1.6602   -2.9193    2.5442 O.2     1  UNL1       -0.4698
     18 C          -2.9098   -2.4546    2.2284 C.ar    1  UNL1        0.1000
     19 C          -2.8314   -1.4529    1.2852 C.ar    1  UNL1        0.0282
     20 C          -3.9034   -0.7352    0.7157 C.ar    1  UNL1       -0.0055
     21 C          -5.2892   -0.9641    1.0602 C.ar    1  UNL1       -0.0527
     22 C          -6.3560   -0.2502    0.4934 C.ar    1  UNL1       -0.0529
     23 C          -5.9217    0.6957   -0.4316 C.ar    1  UNL1       -0.0102
     24 C          -6.8268    1.4917   -1.0905 C.ar    1  UNL1       -0.0166
     25 S          -6.0424    2.5641   -2.1668 S.2     1  UNL1       -0.1039
     26 C          -4.4886    1.9564   -1.7454 C.ar    1  UNL1       -0.0160
     27 C          -4.5374    0.9532   -0.8028 C.ar    1  UNL1       -0.0021
     28 C          -3.4330    0.2528   -0.2522 C.ar    1  UNL1        0.0054
     29 C           0.2803   -0.1212   -0.2486 C.ar    1  UNL1        0.0354
     30 S           1.8605   -0.7248    0.1695 S.2     1  UNL1       -0.0865
     31 H           7.9776   -0.6707    0.3352 H       1  UNL1        0.0356
     32 H           7.9979    1.1202    0.4893 H       1  UNL1        0.0356
     33 H           6.7924    0.0527    2.6566 H       1  UNL1        0.0575
     34 H           4.2937    0.1376    1.9443 H       1  UNL1        0.0621
     35 H           7.2305    0.5275   -2.6995 H       1  UNL1        0.0696
     36 H           1.9696    1.9219   -2.3117 H       1  UNL1        0.0640
     37 H           0.2767   -2.4778    1.9455 H       1  UNL1        0.1036
     38 H          -3.7169   -2.9404    2.7582 H       1  UNL1        0.1036
     39 H          -5.5375   -1.7273    1.7966 H       1  UNL1        0.0624
     40 H          -7.3884   -0.4336    0.7620 H       1  UNL1        0.0624
     41 H          -7.9047    1.5078   -1.0041 H       1  UNL1        0.0699
     42 H          -3.6488    2.4069   -2.2461 H       1  UNL1        0.0700
@<TRIPOS>BOND
     1     1     2    1
     2     2     3    2
     3     3     4    1
     4     4     5   ar
     5     5     6   ar
     6     6     7   ar
     7     7     8   ar
     8     8     9    1
     9     9    10   ar
    10    10    11   ar
    11    11    12   ar
    12    12    13   ar
    13    13    14   ar
    14    14    15   ar
    15    15    16   ar
    16    16    17   ar
    17    17    18   ar
    18    18    19   ar
    19    19    20   ar
    20    20    21   ar
    21    21    22   ar
    22    22    23   ar
    23    23    24   ar
    24    24    25   ar
    25    25    26   ar
    26    26    27   ar
    27    27    28   ar
    28    14    29   ar
    29    29    30   ar
    30     5     1    1
    31    30     9   ar
    32     8     4   ar
    33    29    11   ar
    34    28    13   ar
    35    19    15   ar
    36    28    20   ar
    37    27    23   ar
    38     1    31    1
    39     1    32    1
    40     2    33    1
    41     3    34    1
    42     6    35    1
    43    10    36    1
    44    16    37    1
    45    18    38    1
    46    21    39    1
    47    22    40    1
    48    24    41    1
    49    26    42    1
