@<TRIPOS>MOLECULE
*****
 40 47 0 0 0
SMALL
GASTEIGER

@<TRIPOS>ATOM
      1 C          -6.6194    1.1291    0.2629 C.3     1  UNL1        0.0000
      2 C          -5.6125    1.8067    1.1985 C.2     1  UNL1        0.0000
      3 C          -4.3610    1.3322    1.0025 C.2     1  UNL1        0.0000
      4 C          -4.3880    0.3498   -0.0208 C.ar    1  UNL1        0.0000
      5 C          -5.7177    0.2059   -0.4826 C.ar    1  UNL1        0.0000
      6 C          -5.8291   -0.7287   -1.4748 C.ar    1  UNL1        0.0000
      7 S          -4.2820   -1.4138   -1.8323 S.2     1  UNL1        0.0000
      8 C          -3.4745   -0.4599   -0.6333 C.ar    1  UNL1        0.0000
      9 C          -2.0388   -0.5725   -0.4534 C.ar    1  UNL1        0.0000
     10 C          -1.1630    0.4592   -0.8084 C.ar    1  UNL1        0.0000
     11 C           0.2328    0.3310   -0.6171 C.ar    1  UNL1        0.0000
     12 S           1.3939    1.5426   -0.9969 S.2     1  UNL1        0.0000
     13 C           2.7327    0.5818   -0.4874 C.ar    1  UNL1        0.0000
     14 C           4.0948    0.9325   -0.4951 C.ar    1  UNL1        0.0000
     15 SI          4.8756    2.5391   -1.0260 Si      1  UNL1        0.0000
     16 C           6.5608    1.7986   -0.6017 C.2     1  UNL1        0.0000
     17 C           6.4821    0.5365   -0.1398 C.2     1  UNL1        0.0000
     18 C           5.1041    0.0451   -0.0776 C.ar    1  UNL1        0.0000
     19 C           4.7055   -1.2298    0.3387 C.ar    1  UNL1        0.0000
     20 N           5.5123   -2.2289    0.7512 N.ar    1  UNL1        0.0000
     21 S           4.5278   -3.5291    1.0967 S.2     1  UNL1        0.0000
     22 N           3.0405   -2.8789    0.7378 N.ar    1  UNL1        0.0000
     23 C           3.2967   -1.6377    0.3666 C.ar    1  UNL1        0.0000
     24 C           2.2781   -0.6661   -0.0469 C.ar    1  UNL1        0.0000
     25 C           0.8612   -0.7882   -0.0869 C.ar    1  UNL1        0.0000
     26 C          -0.0158   -1.8674    0.3431 C.ar    1  UNL1        0.0000
     27 N           0.4000   -2.9668    0.9446 N.ar    1  UNL1        0.0000
     28 S          -0.9822   -3.8453    1.2195 S.2     1  UNL1        0.0000
     29 N          -2.1191   -2.8007    0.6012 N.ar    1  UNL1        0.0000
     30 C          -1.4595   -1.7170    0.1374 C.ar    1  UNL1        0.0000
     31 H          -7.3766    0.5857    0.8347 H       1  UNL1        0.0000
     32 H          -7.0895    1.8620   -0.3985 H       1  UNL1        0.0000
     33 H          -5.8869    2.5602    1.9217 H       1  UNL1        0.0000
     34 H          -3.4760    1.6404    1.5410 H       1  UNL1        0.0000
     35 H          -6.7091   -1.0524   -2.0125 H       1  UNL1        0.0000
     36 H          -1.5641    1.3737   -1.2447 H       1  UNL1        0.0000
     37 H           4.7429    2.7981   -2.4806 H       1  UNL1        0.0000
     38 H           4.5361    3.6732   -0.1321 H       1  UNL1        0.0000
     39 H           7.4634    2.3749   -0.7377 H       1  UNL1        0.0000
     40 H           7.3234   -0.0750    0.1597 H       1  UNL1        0.0000
@<TRIPOS>BOND
     1     1     2    1
     2     2     3    2
     3     3     4    1
     4     4     5   ar
     5     5     6   ar
     6     6     7   ar
     7     7     8   ar
     8     8     9    1
     9     9    10   ar
    10    10    11   ar
    11    11    12   ar
    12    12    13   ar
    13    13    14   ar
    14    14    15    1
    15    15    16    1
    16    16    17    2
    17    17    18    1
    18    18    19   ar
    19    19    20   ar
    20    20    21   ar
    21    21    22   ar
    22    22    23   ar
    23    23    24   ar
    24    24    25   ar
    25    25    26   ar
    26    26    27   ar
    27    27    28   ar
    28    28    29   ar
    29    29    30   ar
    30     5     1    1
    31    30     9   ar
    32     8     4   ar
    33    25    11   ar
    34    30    26   ar
    35    24    13   ar
    36    18    14   ar
    37    23    19   ar
    38     1    31    1
    39     1    32    1
    40     2    33    1
    41     3    34    1
    42     6    35    1
    43    10    36    1
    44    15    37    1
    45    15    38    1
    46    16    39    1
    47    17    40    1
