@<TRIPOS>MOLECULE
*****
 42 49 0 0 0
SMALL
GASTEIGER

@<TRIPOS>ATOM
      1 C          -6.6511    0.6548    0.9830 C.3     1  UNL1       -0.0081
      2 C          -5.6798    1.7405    1.4579 C.2     1  UNL1       -0.0791
      3 C          -4.3978    1.4112    1.1788 C.2     1  UNL1       -0.0568
      4 C          -4.3696    0.1504    0.5291 C.ar    1  UNL1       -0.0070
      5 C          -5.6948   -0.3268    0.3964 C.ar    1  UNL1       -0.0289
      6 C          -5.7528   -1.5447   -0.2231 C.ar    1  UNL1       -0.0197
      7 S          -4.1623   -2.0889   -0.6296 S.2     1  UNL1       -0.0958
      8 C          -3.4065   -0.6713    0.0174 C.ar    1  UNL1        0.0274
      9 C          -1.9660   -0.5342   -0.0108 C.ar    1  UNL1        0.0011
     10 C          -1.1626   -0.5317    1.1440 C.ar    1  UNL1       -0.0385
     11 C           0.2552   -0.3641    1.0762 C.ar    1  UNL1        0.0219
     12 S           1.3414   -0.2267    2.4261 S.2     1  UNL1       -0.0845
     13 C           2.6834   -0.0894    1.4081 C.ar    1  UNL1        0.0639
     14 C           4.1433    0.1213    1.8660 C.ar    1  UNL1        0.1496
     15 O           4.6468    0.3104    3.1170 O.2     1  UNL1       -0.4618
     16 C           6.0015    0.4490    2.9667 C.ar    1  UNL1        0.0932
     17 C           6.3774    0.3417    1.6389 C.ar    1  UNL1       -0.0155
     18 C           5.1744    0.1369    0.9702 C.ar    1  UNL1        0.0295
     19 C           4.8401   -0.1082   -0.3838 C.ar    1  UNL1        0.0005
     20 C           5.7900   -0.2238   -1.3612 C.ar    1  UNL1       -0.0159
     21 S           5.0373   -0.6781   -2.8449 S.2     1  UNL1       -0.1038
     22 C           3.4636   -0.7198   -2.1242 C.ar    1  UNL1       -0.0160
     23 C           3.5068   -0.3047   -0.8201 C.ar    1  UNL1       -0.0013
     24 C           2.3676   -0.2139    0.0725 C.ar    1  UNL1        0.0094
     25 C           0.9783   -0.2433   -0.1168 C.ar    1  UNL1        0.0084
     26 C           0.1641   -0.1140   -1.2953 C.ar    1  UNL1        0.0293
     27 C           0.4439    0.2709   -2.5714 C.ar    1  UNL1        0.1000
     28 O          -0.7232    0.2687   -3.2894 O.2     1  UNL1       -0.4698
     29 C          -1.7324   -0.0677   -2.4284 C.ar    1  UNL1        0.1000
     30 C          -1.2305   -0.2804   -1.1643 C.ar    1  UNL1        0.0287
     31 H          -7.2035    0.2314    1.8264 H       1  UNL1        0.0356
     32 H          -7.3401    1.0510    0.2320 H       1  UNL1        0.0356
     33 H          -5.9962    2.6486    1.9492 H       1  UNL1        0.0575
     34 H          -3.5257    2.0082    1.4067 H       1  UNL1        0.0621
     35 H          -6.6166   -2.1504   -0.4587 H       1  UNL1        0.0696
     36 H          -1.6329   -0.6464    2.1200 H       1  UNL1        0.0635
     37 H           6.5488    0.6081    3.8859 H       1  UNL1        0.1030
     38 H           7.3843    0.3977    1.2527 H       1  UNL1        0.0655
     39 H           6.8639   -0.1113   -1.3072 H       1  UNL1        0.0700
     40 H           2.6446   -1.0885   -2.7199 H       1  UNL1        0.0700
     41 H           1.3104    0.6006   -3.1235 H       1  UNL1        0.1036
     42 H          -2.7228   -0.0732   -2.8630 H       1  UNL1        0.1036
@<TRIPOS>BOND
     1     1     2    1
     2     2     3    2
     3     3     4    1
     4     4     5   ar
     5     5     6   ar
     6     6     7   ar
     7     7     8   ar
     8     8     9    1
     9     9    10   ar
    10    10    11   ar
    11    11    12   ar
    12    12    13   ar
    13    13    14   ar
    14    14    15   ar
    15    15    16   ar
    16    16    17   ar
    17    17    18   ar
    18    18    19   ar
    19    19    20   ar
    20    20    21   ar
    21    21    22   ar
    22    22    23   ar
    23    23    24   ar
    24    24    25   ar
    25    25    26   ar
    26    26    27   ar
    27    27    28   ar
    28    28    29   ar
    29    29    30   ar
    30     5     1    1
    31    30     9   ar
    32     8     4   ar
    33    25    11   ar
    34    30    26   ar
    35    24    13   ar
    36    18    14   ar
    37    23    19   ar
    38     1    31    1
    39     1    32    1
    40     2    33    1
    41     3    34    1
    42     6    35    1
    43    10    36    1
    44    16    37    1
    45    17    38    1
    46    20    39    1
    47    22    40    1
    48    27    41    1
    49    29    42    1
