@<TRIPOS>MOLECULE
*****
 45 52 0 0 0
SMALL
GASTEIGER

@<TRIPOS>ATOM
      1 SI          1.2538    2.9760   -2.2302 Si      1  UNL1        0.0000
      2 C           2.3343    1.9653   -1.1050 C.2     1  UNL1        0.0000
      3 C           1.6133    1.0869   -0.3747 C.ar    1  UNL1        0.0000
      4 C           2.1664    0.2714    0.7244 C.ar    1  UNL1        0.0000
      5 C           1.3010   -0.4208    1.5022 C.ar    1  UNL1        0.0000
      6 C          -0.0940   -0.4085    1.1825 C.ar    1  UNL1        0.0000
      7 S          -1.2364   -1.1639    2.2024 S.2     1  UNL1        0.0000
      8 C          -2.5426   -0.8693    1.1121 C.ar    1  UNL1        0.0000
      9 C          -3.9084   -1.2073    1.2448 C.ar    1  UNL1        0.0000
     10 SI         -4.7463   -1.9963    2.7046 Si      1  UNL1        0.0000
     11 C          -6.3708   -1.9391    1.7329 C.2     1  UNL1        0.0000
     12 C          -6.2358   -1.4040    0.5046 C.2     1  UNL1        0.0000
     13 C          -4.8610   -0.9925    0.2221 C.ar    1  UNL1        0.0000
     14 C          -4.3220   -0.4783   -0.9484 C.ar    1  UNL1        0.0000
     15 C          -5.0533   -0.2918   -2.1015 C.ar    1  UNL1        0.0000
     16 S          -4.0686    0.2340   -3.4136 S.2     1  UNL1        0.0000
     17 C          -2.6458    0.2107   -2.4456 C.ar    1  UNL1        0.0000
     18 C          -2.9608   -0.1071   -1.1552 C.ar    1  UNL1        0.0000
     19 C          -2.0404   -0.2325   -0.0292 C.ar    1  UNL1        0.0000
     20 C          -0.6921    0.2024    0.0827 C.ar    1  UNL1        0.0000
     21 C           0.1472    1.0911   -0.6811 C.ar    1  UNL1        0.0000
     22 C          -0.2196    2.0659   -1.5366 C.2     1  UNL1        0.0000
     23 C           3.5578    0.1660    1.0373 C.ar    1  UNL1        0.0000
     24 S           4.2180    0.7390    2.5590 S.2     1  UNL1        0.0000
     25 C           5.8498    0.3008    2.1581 C.ar    1  UNL1        0.0000
     26 C           5.8406   -0.2366    0.9231 C.ar    1  UNL1        0.0000
     27 N           6.9135   -0.7074    0.2245 N.ar    1  UNL1        0.0000
     28 C           6.3038   -1.1242   -0.9580 C.ar    1  UNL1        0.0000
     29 C           4.9107   -0.8972   -0.9330 C.ar    1  UNL1        0.0000
     30 C           4.6061   -0.3060    0.3207 C.ar    1  UNL1        0.0000
     31 H           1.2458    4.4155   -1.8768 H       1  UNL1        0.0000
     32 H           1.4749    2.6675   -3.6632 H       1  UNL1        0.0000
     33 H           3.3917    2.1663   -1.0282 H       1  UNL1        0.0000
     34 H           1.6453   -1.0279    2.3351 H       1  UNL1        0.0000
     35 H          -4.8112   -1.1223    3.9026 H       1  UNL1        0.0000
     36 H          -4.3239   -3.3973    2.9536 H       1  UNL1        0.0000
     37 H          -7.2813   -2.3160    2.1730 H       1  UNL1        0.0000
     38 H          -7.0436   -1.2860   -0.2030 H       1  UNL1        0.0000
     39 H          -6.1065   -0.4608   -2.2756 H       1  UNL1        0.0000
     40 H          -1.6917    0.4051   -2.9086 H       1  UNL1        0.0000
     41 H          -1.2161    2.3674   -1.8112 H       1  UNL1        0.0000
     42 H           6.6772    0.4657    2.8333 H       1  UNL1        0.0000
     43 H           7.8838   -0.7349    0.5125 H       1  UNL1        0.0000
     44 H           6.9163   -1.5586   -1.7379 H       1  UNL1        0.0000
     45 H           4.2209   -1.1377   -1.7314 H       1  UNL1        0.0000
@<TRIPOS>BOND
     1     1     2    1
     2     2     3    2
     3     3     4   ar
     4     4     5   ar
     5     5     6   ar
     6     6     7   ar
     7     7     8   ar
     8     8     9   ar
     9     9    10    1
    10    10    11    1
    11    11    12    2
    12    12    13    1
    13    13    14   ar
    14    14    15   ar
    15    15    16   ar
    16    16    17   ar
    17    17    18   ar
    18    18    19   ar
    19    19    20   ar
    20    20    21   ar
    21    21    22    2
    22     4    23    1
    23    23    24   ar
    24    24    25   ar
    25    25    26   ar
    26    26    27   ar
    27    27    28   ar
    28    28    29   ar
    29    29    30   ar
    30    22     1    1
    31    30    23   ar
    32    21     3   ar
    33    30    26   ar
    34    20     6   ar
    35    19     8   ar
    36    13     9   ar
    37    18    14   ar
    38     1    31    1
    39     1    32    1
    40     2    33    1
    41     5    34    1
    42    10    35    1
    43    10    36    1
    44    11    37    1
    45    12    38    1
    46    15    39    1
    47    17    40    1
    48    22    41    1
    49    25    42    1
    50    27    43    1
    51    28    44    1
    52    29    45    1
