@<TRIPOS>MOLECULE
*****
 40 47 0 0 0
SMALL
GASTEIGER

@<TRIPOS>ATOM
      1 C          -3.4078   -5.8630    0.8033 C.3     1  UNL1       -0.0081
      2 C          -2.1318   -5.8177   -0.0415 C.2     1  UNL1       -0.0791
      3 C          -1.6257   -4.5648   -0.1015 C.2     1  UNL1       -0.0568
      4 C          -2.4516   -3.6866    0.6482 C.ar    1  UNL1       -0.0070
      5 C          -3.5202   -4.4313    1.2028 C.ar    1  UNL1       -0.0289
      6 C          -4.3657   -3.6596    1.9497 C.ar    1  UNL1       -0.0197
      7 S          -3.8263   -2.0187    1.9631 S.2     1  UNL1       -0.0957
      8 C          -2.4519   -2.3543    0.9564 C.ar    1  UNL1        0.0289
      9 C          -1.5410   -1.2789    0.5911 C.ar    1  UNL1        0.0185
     10 C          -0.8915   -0.4792    1.5419 C.ar    1  UNL1       -0.0370
     11 C          -0.0068    0.5537    1.1517 C.ar    1  UNL1        0.0233
     12 S           0.8500    1.5956    2.2376 S.2     1  UNL1       -0.0870
     13 C           1.5872    2.4287    0.9631 C.ar    1  UNL1        0.0355
     14 C           2.5906    3.6168    1.1349 C.ar    1  UNL1        0.0343
     15 S           3.1550    4.3216    2.5708 S.2     1  UNL1       -0.0955
     16 C           4.1293    5.4471    1.6935 C.ar    1  UNL1       -0.0231
     17 C           4.0243    5.2860    0.3231 C.ar    1  UNL1       -0.0463
     18 C           3.1389    4.2338    0.0466 C.ar    1  UNL1        0.0010
     19 C           2.7296    3.7180   -1.2050 C.ar    1  UNL1        0.0287
     20 C           3.1360    4.1664   -2.4270 C.ar    1  UNL1        0.1000
     21 O           2.5153    3.4111   -3.3842 O.2     1  UNL1       -0.4698
     22 C           1.7205    2.4909   -2.7376 C.ar    1  UNL1        0.1000
     23 C           1.8308    2.6528   -1.3824 C.ar    1  UNL1        0.0293
     24 C           1.2118    1.9507   -0.2782 C.ar    1  UNL1        0.0109
     25 C           0.3010    0.8760   -0.1690 C.ar    1  UNL1        0.0258
     26 C          -0.3467    0.0758   -1.1856 C.ar    1  UNL1        0.1093
     27 N          -0.1595    0.2524   -2.4812 N.ar    1  UNL1       -0.1901
     28 S          -1.1277   -0.8977   -3.1964 S.2     1  UNL1        0.1165
     29 N          -1.7697   -1.6203   -1.8447 N.ar    1  UNL1       -0.1901
     30 C          -1.2590   -0.9906   -0.7642 C.ar    1  UNL1        0.1087
     31 H          -4.2616   -6.1861    0.2014 H       1  UNL1        0.0356
     32 H          -3.2780   -6.5183    1.6690 H       1  UNL1        0.0356
     33 H          -1.7075   -6.6837   -0.5271 H       1  UNL1        0.0575
     34 H          -0.7382   -4.2668   -0.6415 H       1  UNL1        0.0621
     35 H          -5.2587   -3.9489    2.4857 H       1  UNL1        0.0696
     36 H          -1.0625   -0.6597    2.6029 H       1  UNL1        0.0636
     37 H           4.7279    6.1681    2.2335 H       1  UNL1        0.0694
     38 H           4.5575    5.8958   -0.3946 H       1  UNL1        0.0629
     39 H           3.7976    4.9378   -2.7936 H       1  UNL1        0.1036
     40 H           1.1862    1.8470   -3.4150 H       1  UNL1        0.1036
@<TRIPOS>BOND
     1     1     2    1
     2     2     3    2
     3     3     4    1
     4     4     5   ar
     5     5     6   ar
     6     6     7   ar
     7     7     8   ar
     8     8     9    1
     9     9    10   ar
    10    10    11   ar
    11    11    12   ar
    12    12    13   ar
    13    13    14   ar
    14    14    15   ar
    15    15    16   ar
    16    16    17   ar
    17    17    18   ar
    18    18    19   ar
    19    19    20   ar
    20    20    21   ar
    21    21    22   ar
    22    22    23   ar
    23    23    24   ar
    24    24    25   ar
    25    25    26   ar
    26    26    27   ar
    27    27    28   ar
    28    28    29   ar
    29    29    30   ar
    30     5     1    1
    31    30     9   ar
    32     8     4   ar
    33    25    11   ar
    34    30    26   ar
    35    24    13   ar
    36    18    14   ar
    37    23    19   ar
    38     1    31    1
    39     1    32    1
    40     2    33    1
    41     3    34    1
    42     6    35    1
    43    10    36    1
    44    16    37    1
    45    17    38    1
    46    20    39    1
    47    22    40    1
