@<TRIPOS>MOLECULE
*****
 46 52 0 0 0
SMALL
GASTEIGER

@<TRIPOS>ATOM
      1 C           6.8594   -0.6680    0.0223 C.3     1  UNL1       -0.0081
      2 C           5.8506   -1.7105    0.5140 C.2     1  UNL1       -0.0791
      3 C           4.5983   -1.2010    0.5582 C.2     1  UNL1       -0.0568
      4 C           4.6255    0.1510    0.1262 C.ar    1  UNL1       -0.0071
      5 C           5.9588    0.4994   -0.1959 C.ar    1  UNL1       -0.0289
      6 C           6.0750    1.7960   -0.6132 C.ar    1  UNL1       -0.0197
      7 S           4.5304    2.5710   -0.6037 S.2     1  UNL1       -0.0958
      8 C           3.7084    1.1531   -0.0334 C.ar    1  UNL1        0.0267
      9 C           2.2598    1.1653    0.1700 C.ar    1  UNL1       -0.0101
     10 C           1.6504    2.1122    0.9770 C.ar    1  UNL1       -0.0529
     11 C           0.2684    2.0775    1.1574 C.ar    1  UNL1       -0.0514
     12 C          -0.5648    1.1050    0.5482 C.ar    1  UNL1        0.0087
     13 C           0.0339    0.1281   -0.2805 C.ar    1  UNL1       -0.0075
     14 C           1.4508    0.1952   -0.4415 C.ar    1  UNL1       -0.0451
     15 C          -0.7890   -0.8613   -0.9060 C.ar    1  UNL1       -0.0095
     16 C          -0.2408   -1.8676   -1.7515 C.ar    1  UNL1       -0.0534
     17 C          -1.0120   -2.8442   -2.3739 C.ar    1  UNL1       -0.0611
     18 C          -2.3713   -2.8477   -2.1699 C.ar    1  UNL1       -0.0611
     19 C          -2.9412   -1.8748   -1.3471 C.ar    1  UNL1       -0.0534
     20 C          -2.1966   -0.8559   -0.6889 C.ar    1  UNL1       -0.0078
     21 C          -2.7911    0.1571    0.1675 C.ar    1  UNL1        0.0127
     22 C          -4.1723    0.3092    0.4911 C.ar    1  UNL1       -0.0253
     23 C          -5.3850   -0.4833    0.0737 C.3     1  UNL1       -0.0079
     24 C          -6.5071    0.2302    0.7830 C.2     1  UNL1       -0.0791
     25 C          -6.0719    1.2696    1.5044 C.2     1  UNL1       -0.0565
     26 C          -4.6349    1.3299    1.3336 C.ar    1  UNL1       -0.0031
     27 C          -3.7397    2.2067    1.8625 C.ar    1  UNL1        0.0357
     28 N          -2.4274    2.1111    1.5924 N.ar    1  UNL1       -0.2537
     29 C          -1.9500    1.1296    0.7763 C.ar    1  UNL1        0.0795
     30 H           7.6122   -0.4639    0.7886 H       1  UNL1        0.0356
     31 H           7.3351   -0.9950   -0.9064 H       1  UNL1        0.0356
     32 H           6.1232   -2.7171    0.7939 H       1  UNL1        0.0575
     33 H           3.7111   -1.7280    0.8803 H       1  UNL1        0.0621
     34 H           6.9582    2.3376   -0.9209 H       1  UNL1        0.0696
     35 H           2.2328    2.8787    1.4818 H       1  UNL1        0.0624
     36 H          -0.1697    2.8407    1.8017 H       1  UNL1        0.0624
     37 H           1.9644   -0.5223   -1.0753 H       1  UNL1        0.0630
     38 H           0.8252   -1.9169   -1.9532 H       1  UNL1        0.0624
     39 H          -0.5452   -3.5899   -3.0110 H       1  UNL1        0.0618
     40 H          -2.9974   -3.5986   -2.6441 H       1  UNL1        0.0618
     41 H          -4.0135   -1.9506   -1.2423 H       1  UNL1        0.0624
     42 H          -5.5477   -0.4296   -1.0067 H       1  UNL1        0.0356
     43 H          -5.3315   -1.5165    0.4289 H       1  UNL1        0.0356
     44 H          -7.5414   -0.0749    0.7075 H       1  UNL1        0.0575
     45 H          -6.6575    1.9466    2.1050 H       1  UNL1        0.0621
     46 H          -4.0326    3.0167    2.5197 H       1  UNL1        0.0836
@<TRIPOS>BOND
     1     1     2    1
     2     2     3    2
     3     3     4    1
     4     4     5   ar
     5     5     6   ar
     6     6     7   ar
     7     7     8   ar
     8     8     9    1
     9     9    10   ar
    10    10    11   ar
    11    11    12   ar
    12    12    13   ar
    13    13    14   ar
    14    13    15   ar
    15    15    16   ar
    16    16    17   ar
    17    17    18   ar
    18    18    19   ar
    19    19    20   ar
    20    20    21   ar
    21    21    22   ar
    22    22    23    1
    23    23    24    1
    24    24    25    2
    25    25    26    1
    26    26    27   ar
    27    27    28   ar
    28    28    29   ar
    29     5     1    1
    30    14     9   ar
    31    20    15   ar
    32    29    21   ar
    33     8     4   ar
    34    29    12   ar
    35    26    22   ar
    36     1    30    1
    37     1    31    1
    38     2    32    1
    39     3    33    1
    40     6    34    1
    41    10    35    1
    42    11    36    1
    43    14    37    1
    44    16    38    1
    45    17    39    1
    46    18    40    1
    47    19    41    1
    48    23    42    1
    49    23    43    1
    50    24    44    1
    51    25    45    1
    52    27    46    1
