@<TRIPOS>MOLECULE
*****
 43 49 0 0 0
SMALL
GASTEIGER

@<TRIPOS>ATOM
      1 C          -7.1117    1.1409    0.3620 C.3     1  UNL1        0.0000
      2 C          -6.1552    2.2747   -0.0196 C.2     1  UNL1        0.0000
      3 C          -4.8654    1.8719    0.0406 C.2     1  UNL1        0.0000
      4 C          -4.8156    0.5121    0.4457 C.ar    1  UNL1        0.0000
      5 C          -6.1383    0.0472    0.6409 C.ar    1  UNL1        0.0000
      6 C          -6.1814   -1.2641    1.0246 C.ar    1  UNL1        0.0000
      7 S          -4.5825   -1.9086    1.1416 S.2     1  UNL1        0.0000
      8 C          -3.8352   -0.4149    0.6696 C.ar    1  UNL1        0.0000
      9 C          -2.3789   -0.3053    0.5970 C.ar    1  UNL1        0.0000
     10 C          -1.7149    0.7079    1.2785 C.ar    1  UNL1        0.0000
     11 C          -0.3227    0.8136    1.1999 C.ar    1  UNL1        0.0000
     12 C           0.4624   -0.0851    0.4348 C.ar    1  UNL1        0.0000
     13 C          -0.2330   -1.1036   -0.2533 C.ar    1  UNL1        0.0000
     14 C          -1.6159   -1.1958   -0.1629 C.ar    1  UNL1        0.0000
     15 N           0.3724   -2.0169   -1.0156 N.ar    1  UNL1        0.0000
     16 C           1.7168   -1.9740   -1.1381 C.ar    1  UNL1        0.0000
     17 C           2.5671   -1.0496   -0.5364 C.ar    1  UNL1        0.0000
     18 C           4.0028   -1.0976   -0.7385 C.ar    1  UNL1        0.0000
     19 SI          5.0490   -2.3187   -1.7835 Si      1  UNL1        0.0000
     20 C           6.6044   -1.3976   -1.2659 C.2     1  UNL1        0.0000
     21 C           6.3601   -0.3569   -0.4499 C.2     1  UNL1        0.0000
     22 C           4.9412   -0.1952   -0.1636 C.ar    1  UNL1        0.0000
     23 C           4.3181    0.7491    0.6242 C.ar    1  UNL1        0.0000
     24 C           4.9113    1.7632    1.3252 C.ar    1  UNL1        0.0000
     25 O           3.9541    2.4772    1.9786 O.2     1  UNL1        0.0000
     26 C           2.7448    1.9077    1.6873 C.ar    1  UNL1        0.0000
     27 C           2.9002    0.8291    0.8487 C.ar    1  UNL1        0.0000
     28 C           1.9108   -0.0605    0.2880 C.ar    1  UNL1        0.0000
     29 H          -7.6933    1.4049    1.2495 H       1  UNL1        0.0000
     30 H          -7.7740    0.8937   -0.4721 H       1  UNL1        0.0000
     31 H          -6.4865    3.2619   -0.3053 H       1  UNL1        0.0000
     32 H          -4.0018    2.4792   -0.1910 H       1  UNL1        0.0000
     33 H          -7.0398   -1.8837    1.2424 H       1  UNL1        0.0000
     34 H          -2.2691    1.4188    1.8880 H       1  UNL1        0.0000
     35 H           0.1252    1.6215    1.7593 H       1  UNL1        0.0000
     36 H          -2.1109   -1.9915   -0.7176 H       1  UNL1        0.0000
     37 H           2.0929   -2.7657   -1.7806 H       1  UNL1        0.0000
     38 H           4.7615   -2.1860   -3.2323 H       1  UNL1        0.0000
     39 H           4.9920   -3.6965   -1.2377 H       1  UNL1        0.0000
     40 H           7.5735   -1.7163   -1.6188 H       1  UNL1        0.0000
     41 H           7.1188    0.2965   -0.0425 H       1  UNL1        0.0000
     42 H           5.9268    2.1044    1.4669 H       1  UNL1        0.0000
     43 H           1.9201    2.4087    2.1660 H       1  UNL1        0.0000
@<TRIPOS>BOND
     1     1     2    1
     2     2     3    2
     3     3     4    1
     4     4     5   ar
     5     5     6   ar
     6     6     7   ar
     7     7     8   ar
     8     8     9    1
     9     9    10   ar
    10    10    11   ar
    11    11    12   ar
    12    12    13   ar
    13    13    14   ar
    14    13    15   ar
    15    15    16   ar
    16    16    17   ar
    17    17    18   ar
    18    18    19    1
    19    19    20    1
    20    20    21    2
    21    21    22    1
    22    22    23   ar
    23    23    24   ar
    24    24    25   ar
    25    25    26   ar
    26    26    27   ar
    27    27    28   ar
    28     5     1    1
    29    14     9   ar
    30    28    17   ar
    31     8     4   ar
    32    28    12   ar
    33    22    18   ar
    34    27    23   ar
    35     1    29    1
    36     1    30    1
    37     2    31    1
    38     3    32    1
    39     6    33    1
    40    10    34    1
    41    11    35    1
    42    14    36    1
    43    16    37    1
    44    19    38    1
    45    19    39    1
    46    20    40    1
    47    21    41    1
    48    24    42    1
    49    26    43    1
