@<TRIPOS>MOLECULE
*****
 42 48 0 0 0
SMALL
GASTEIGER

@<TRIPOS>ATOM
      1 C          -6.7035   -0.1559    0.2329 C.3     1  UNL1       -0.0081
      2 C          -5.8197   -0.4217    1.4551 C.2     1  UNL1       -0.0791
      3 C          -4.5077   -0.4094    1.1262 C.2     1  UNL1       -0.0568
      4 C          -4.3732   -0.1482   -0.2629 C.ar    1  UNL1       -0.0070
      5 C          -5.6641    0.0024   -0.8237 C.ar    1  UNL1       -0.0289
      6 C          -5.6264    0.2458   -2.1682 C.ar    1  UNL1       -0.0197
      7 S          -3.9918    0.2862   -2.7251 S.2     1  UNL1       -0.0957
      8 C          -3.3372   -0.0270   -1.1481 C.ar    1  UNL1        0.0282
      9 C          -1.8928   -0.0951   -0.9449 C.ar    1  UNL1        0.0080
     10 C          -1.0661   -0.8845   -1.7337 C.ar    1  UNL1        0.0365
     11 N           0.2826   -1.0026   -1.5856 N.ar    1  UNL1       -0.2537
     12 C           0.9165   -0.3168   -0.6093 C.ar    1  UNL1        0.0794
     13 C           0.1243    0.5166    0.2415 C.ar    1  UNL1        0.0107
     14 C          -1.2745    0.6226    0.0710 C.ar    1  UNL1       -0.0422
     15 C           0.8912    1.1825    1.2206 C.ar    1  UNL1        0.0092
     16 C           0.4477    2.0526    2.1876 C.ar    1  UNL1        0.0101
     17 N           1.5503    2.4524    2.9114 N.ar    1  UNL1       -0.3659
     18 C           2.6855    1.8467    2.4176 C.ar    1  UNL1        0.0100
     19 C           2.2990    1.0527    1.3648 C.ar    1  UNL1        0.0078
     20 C           3.1161    0.2423    0.5493 C.ar    1  UNL1       -0.0061
     21 C           4.5208    0.0992    0.6768 C.ar    1  UNL1       -0.0451
     22 C           5.2203   -0.7473   -0.2087 C.ar    1  UNL1       -0.0102
     23 C           6.6191   -1.0599   -0.2902 C.ar    1  UNL1       -0.0470
     24 C           6.9121   -1.9402   -1.3048 C.ar    1  UNL1       -0.0232
     25 S           5.5179   -2.4016   -2.1699 S.2     1  UNL1       -0.0966
     26 C           4.4920   -1.4202   -1.1895 C.ar    1  UNL1        0.0200
     27 C           3.0909   -1.2749   -1.3138 C.ar    1  UNL1       -0.0376
     28 C           2.3539   -0.4407   -0.4512 C.ar    1  UNL1        0.0098
     29 H          -7.3592   -1.0082    0.0346 H       1  UNL1        0.0356
     30 H          -7.2899    0.7571    0.3680 H       1  UNL1        0.0356
     31 H          -6.2117   -0.6024    2.4449 H       1  UNL1        0.0575
     32 H          -3.6848   -0.5815    1.8058 H       1  UNL1        0.0621
     33 H          -6.4450    0.4009   -2.8568 H       1  UNL1        0.0696
     34 H          -1.4715   -1.4879   -2.5429 H       1  UNL1        0.0836
     35 H          -1.8571    1.2681    0.7206 H       1  UNL1        0.0631
     36 H          -0.5338    2.4318    2.4366 H       1  UNL1        0.0813
     37 H           1.5299    3.0976    3.6909 H       1  UNL1        0.1648
     38 H           3.6483    2.0465    2.8675 H       1  UNL1        0.0813
     39 H           5.0635    0.6349    1.4491 H       1  UNL1        0.0630
     40 H           7.3722   -0.6513    0.3721 H       1  UNL1        0.0629
     41 H           7.8800   -2.3354   -1.5803 H       1  UNL1        0.0694
     42 H           2.5762   -1.8260   -2.1002 H       1  UNL1        0.0636
@<TRIPOS>BOND
     1     1     2    1
     2     2     3    2
     3     3     4    1
     4     4     5   ar
     5     5     6   ar
     6     6     7   ar
     7     7     8   ar
     8     8     9    1
     9     9    10   ar
    10    10    11   ar
    11    11    12   ar
    12    12    13   ar
    13    13    14   ar
    14    13    15   ar
    15    15    16   ar
    16    16    17   ar
    17    17    18   ar
    18    18    19   ar
    19    19    20   ar
    20    20    21   ar
    21    21    22   ar
    22    22    23   ar
    23    23    24   ar
    24    24    25   ar
    25    25    26   ar
    26    26    27   ar
    27    27    28   ar
    28     5     1    1
    29    14     9   ar
    30    19    15   ar
    31    28    20   ar
    32     8     4   ar
    33    28    12   ar
    34    26    22   ar
    35     1    29    1
    36     1    30    1
    37     2    31    1
    38     3    32    1
    39     6    33    1
    40    10    34    1
    41    14    35    1
    42    16    36    1
    43    17    37    1
    44    18    38    1
    45    21    39    1
    46    23    40    1
    47    24    41    1
    48    27    42    1
