@<TRIPOS>MOLECULE
*****
 47 54 0 0 0
SMALL
GASTEIGER

@<TRIPOS>ATOM
      1 C          -4.8214    2.9844   -0.4630 C.3     1  UNL1        0.0000
      2 C          -6.1782    2.3237   -0.4109 C.2     1  UNL1        0.0000
      3 C          -6.1006    1.0000   -0.1988 C.2     1  UNL1        0.0000
      4 C          -4.6941    0.6555   -0.0889 C.ar    1  UNL1        0.0000
      5 C          -4.0925   -0.5740    0.0790 C.ar    1  UNL1        0.0000
      6 C          -2.6835   -0.6493    0.1320 C.ar    1  UNL1        0.0000
      7 C          -1.8793    0.5368    0.0737 C.ar    1  UNL1        0.0000
      8 C          -2.5410    1.7582   -0.1751 C.ar    1  UNL1        0.0000
      9 C          -3.9258    1.8056   -0.2333 C.ar    1  UNL1        0.0000
     10 C          -0.4008    0.4384    0.1985 C.ar    1  UNL1        0.0000
     11 C           0.5144    1.4811    0.4582 C.ar    1  UNL1        0.0000
     12 C           0.2750    2.7862    0.8200 C.ar    1  UNL1        0.0000
     13 O           1.4467    3.4708    0.9646 O.2     1  UNL1        0.0000
     14 C           2.4617    2.5917    0.7435 C.ar    1  UNL1        0.0000
     15 C           1.9468    1.3460    0.4860 C.ar    1  UNL1        0.0000
     16 C           2.6644    0.1684    0.2805 C.ar    1  UNL1        0.0000
     17 C           1.7627   -0.9099    0.1009 C.ar    1  UNL1        0.0000
     18 C           0.3148   -0.8084    0.0923 C.ar    1  UNL1        0.0000
     19 C          -0.5156   -2.0439    0.0565 C.ar    1  UNL1        0.0000
     20 C          -0.0384   -3.3075    0.0008 C.2     1  UNL1        0.0000
     21 SI         -1.4015   -4.5771    0.0906 Si      1  UNL1        0.0000
     22 C          -2.6102   -3.1639    0.1975 C.2     1  UNL1        0.0000
     23 C          -1.9921   -1.9626    0.1527 C.ar    1  UNL1        0.0000
     24 C           4.1071    0.0401    0.3175 C.ar    1  UNL1        0.0000
     25 C           4.9171    0.4211    1.3979 C.ar    1  UNL1        0.0000
     26 N           6.2840    0.3307    1.5090 N.ar    1  UNL1        0.0000
     27 C           7.0305   -0.1920    0.4942 C.ar    1  UNL1        0.0000
     28 C           6.3588   -0.6362   -0.6607 C.ar    1  UNL1        0.0000
     29 N           6.9208   -1.1807   -1.7520 N.ar    1  UNL1        0.0000
     30 S           5.6791   -1.5126   -2.8015 S.2     1  UNL1        0.0000
     31 N           4.3785   -0.9896   -1.9167 N.ar    1  UNL1        0.0000
     32 C           4.8578   -0.5191   -0.7500 C.ar    1  UNL1        0.0000
     33 H          -4.6440    3.4364   -1.4430 H       1  UNL1        0.0000
     34 H          -4.7166    3.7263    0.3335 H       1  UNL1        0.0000
     35 H          -7.1026    2.8698   -0.5357 H       1  UNL1        0.0000
     36 H          -6.9151    0.2982   -0.1235 H       1  UNL1        0.0000
     37 H          -4.7155   -1.4584    0.1352 H       1  UNL1        0.0000
     38 H          -2.0017    2.6758   -0.3690 H       1  UNL1        0.0000
     39 H          -0.6022    3.3798    1.0279 H       1  UNL1        0.0000
     40 H           3.4557    3.0077    0.8320 H       1  UNL1        0.0000
     41 H           2.2123   -1.8953   -0.0200 H       1  UNL1        0.0000
     42 H           0.9827   -3.6434   -0.0560 H       1  UNL1        0.0000
     43 H          -1.5403   -5.3532   -1.1649 H       1  UNL1        0.0000
     44 H          -1.3485   -5.3774    1.3375 H       1  UNL1        0.0000
     45 H          -3.6645   -3.3751    0.2523 H       1  UNL1        0.0000
     46 H           4.4522    0.8399    2.2925 H       1  UNL1        0.0000
     47 H           8.1028   -0.2433    0.6274 H       1  UNL1        0.0000
@<TRIPOS>BOND
     1     1     2    1
     2     2     3    2
     3     3     4    1
     4     4     5   ar
     5     5     6   ar
     6     6     7   ar
     7     7     8   ar
     8     8     9   ar
     9     7    10   ar
    10    10    11   ar
    11    11    12   ar
    12    12    13   ar
    13    13    14   ar
    14    14    15   ar
    15    15    16   ar
    16    16    17   ar
    17    17    18   ar
    18    18    19   ar
    19    19    20    2
    20    20    21    1
    21    21    22    1
    22    22    23    2
    23    16    24    1
    24    24    25   ar
    25    25    26   ar
    26    26    27   ar
    27    27    28   ar
    28    28    29   ar
    29    29    30   ar
    30    30    31   ar
    31    31    32   ar
    32     9     1    1
    33    18    10   ar
    34    23    19   ar
    35    32    24   ar
    36     9     4   ar
    37    15    11   ar
    38    32    28   ar
    39    23     6   ar
    40     1    33    1
    41     1    34    1
    42     2    35    1
    43     3    36    1
    44     5    37    1
    45     8    38    1
    46    12    39    1
    47    14    40    1
    48    17    41    1
    49    20    42    1
    50    21    43    1
    51    21    44    1
    52    22    45    1
    53    25    46    1
    54    27    47    1
