@<TRIPOS>MOLECULE
*****
 28 31 0 0 0
SMALL
GASTEIGER

@<TRIPOS>ATOM
      1 C          -3.7053    1.2796   -1.3580 C.3     1  UNL1       -0.0086
      2 C          -4.8268    0.6161   -0.5950 C.2     1  UNL1       -0.0791
      3 C          -4.3837   -0.2336    0.3457 C.2     1  UNL1       -0.0579
      4 C          -2.9319   -0.2198    0.3023 C.ar    1  UNL1       -0.0212
      5 C          -2.0178   -0.9199    1.0668 C.ar    1  UNL1       -0.0452
      6 C          -0.6457   -0.7226    0.8198 C.ar    1  UNL1        0.0008
      7 C           0.3427   -1.3854    1.5413 C.ar    1  UNL1        0.0360
      8 N           1.6711   -1.2301    1.3421 N.ar    1  UNL1       -0.2523
      9 C           2.0777   -0.3699    0.3731 C.ar    1  UNL1        0.0964
     10 C           1.1622    0.3415   -0.4038 C.ar    1  UNL1       -0.0259
     11 C          -0.2140    0.1733   -0.1894 C.ar    1  UNL1       -0.0140
     12 C          -1.1652    0.8734   -0.9532 C.ar    1  UNL1       -0.0499
     13 C          -2.5105    0.6655   -0.6949 C.ar    1  UNL1       -0.0359
     14 C           3.5513   -0.2649    0.2273 C.ar    1  UNL1        0.1264
     15 N           4.4344   -0.9292    0.9566 N.ar    1  UNL1       -0.2458
     16 C           5.7227   -0.6156    0.5797 C.ar    1  UNL1        0.0355
     17 C           5.8339    0.2944   -0.4446 C.ar    1  UNL1       -0.0042
     18 S           4.2750    0.7759   -0.9557 S.2     1  UNL1       -0.0742
     19 H          -3.7259    2.3642   -1.2187 H       1  UNL1        0.0356
     20 H          -3.7490    1.0220   -2.4200 H       1  UNL1        0.0356
     21 H          -5.8703    0.8141   -0.7961 H       1  UNL1        0.0575
     22 H          -4.9749   -0.8290    1.0223 H       1  UNL1        0.0621
     23 H          -2.3572   -1.6043    1.8381 H       1  UNL1        0.0630
     24 H           0.0905   -2.0883    2.3315 H       1  UNL1        0.0836
     25 H           1.4967    1.0265   -1.1753 H       1  UNL1        0.0646
     26 H          -0.8626    1.5662   -1.7330 H       1  UNL1        0.0627
     27 H           6.5521   -1.0865    1.0929 H       1  UNL1        0.0835
     28 H           6.7306    0.6863   -0.9019 H       1  UNL1        0.0709
@<TRIPOS>BOND
     1     1     2    1
     2     2     3    2
     3     3     4    1
     4     4     5   ar
     5     5     6   ar
     6     6     7   ar
     7     7     8   ar
     8     8     9   ar
     9     9    10   ar
    10    10    11   ar
    11    11    12   ar
    12    12    13   ar
    13     9    14    1
    14    14    15   ar
    15    15    16   ar
    16    16    17   ar
    17    17    18   ar
    18    13     1    1
    19    18    14   ar
    20    13     4   ar
    21    11     6   ar
    22     1    19    1
    23     1    20    1
    24     2    21    1
    25     3    22    1
    26     5    23    1
    27     7    24    1
    28    10    25    1
    29    12    26    1
    30    16    27    1
    31    17    28    1
