@<TRIPOS>MOLECULE
*****
 37 42 0 0 0
SMALL
GASTEIGER

@<TRIPOS>ATOM
      1 C          -5.2529    1.2330    0.1645 C.3     1  UNL1       -0.0086
      2 C          -6.2329    0.2408   -0.4122 C.2     1  UNL1       -0.0791
      3 C          -5.6336   -0.8558   -0.9028 C.2     1  UNL1       -0.0578
      4 C          -4.2010   -0.7058   -0.7036 C.ar    1  UNL1       -0.0183
      5 C          -3.1810   -1.5793   -1.0472 C.ar    1  UNL1       -0.0113
      6 C          -1.8961   -1.1401   -0.7178 C.ar    1  UNL1        0.1368
      7 O          -0.7499   -1.8506   -0.9698 O.2     1  UNL1       -0.4547
      8 C           0.2987   -1.1027   -0.5096 C.ar    1  UNL1        0.1375
      9 C           1.6637   -1.4551   -0.5663 C.ar    1  UNL1       -0.0099
     10 C           2.6364   -0.5695   -0.0395 C.ar    1  UNL1        0.0013
     11 C           4.0629   -0.8561   -0.0307 C.ar    1  UNL1        0.0201
     12 C           4.9298   -0.9311    1.0435 C.ar    1  UNL1       -0.0469
     13 C           6.2651   -1.2364    0.6498 C.ar    1  UNL1       -0.0541
     14 C           6.3760   -1.3872   -0.7138 C.ar    1  UNL1       -0.0237
     15 S           4.8785   -1.1638   -1.5081 S.2     1  UNL1       -0.0966
     16 C           2.0885    0.6083    0.4972 C.ar    1  UNL1        0.0084
     17 C           2.7632    1.6743    1.0547 C.ar    1  UNL1        0.0100
     18 N           1.8304    2.6232    1.4413 N.ar    1  UNL1       -0.3659
     19 C           0.5540    2.1952    1.1355 C.ar    1  UNL1        0.0101
     20 C           0.7277    0.9747    0.5576 C.ar    1  UNL1        0.0113
     21 C          -0.2169    0.0603    0.0236 C.ar    1  UNL1        0.0371
     22 C          -1.6091    0.0820   -0.0876 C.ar    1  UNL1        0.0288
     23 C          -2.6677    0.9484    0.2492 C.ar    1  UNL1       -0.0463
     24 C          -3.9534    0.5226   -0.0737 C.ar    1  UNL1       -0.0357
     25 H          -5.4336    1.3856    1.2322 H       1  UNL1        0.0356
     26 H          -5.2931    2.1823   -0.3772 H       1  UNL1        0.0356
     27 H          -7.3006    0.4088   -0.4224 H       1  UNL1        0.0575
     28 H          -6.1034   -1.7083   -1.3661 H       1  UNL1        0.0621
     29 H          -3.3508   -2.5300   -1.5331 H       1  UNL1        0.0660
     30 H           1.9530   -2.4054   -1.0043 H       1  UNL1        0.0661
     31 H           4.6162   -0.7777    2.0693 H       1  UNL1        0.0629
     32 H           7.0993   -1.3423    1.3321 H       1  UNL1        0.0623
     33 H           7.2637   -1.6204   -1.2854 H       1  UNL1        0.0693
     34 H           3.8169    1.8636    1.2102 H       1  UNL1        0.0813
     35 H           2.0565    3.5086    1.8761 H       1  UNL1        0.1648
     36 H          -0.3094    2.8055    1.3558 H       1  UNL1        0.0813
     37 H          -2.4949    1.9005    0.7357 H       1  UNL1        0.0628
@<TRIPOS>BOND
     1     1     2    1
     2     2     3    2
     3     3     4    1
     4     4     5   ar
     5     5     6   ar
     6     6     7   ar
     7     7     8   ar
     8     8     9   ar
     9     9    10   ar
    10    10    11    1
    11    11    12   ar
    12    12    13   ar
    13    13    14   ar
    14    14    15   ar
    15    10    16   ar
    16    16    17   ar
    17    17    18   ar
    18    18    19   ar
    19    19    20   ar
    20    20    21   ar
    21    21    22   ar
    22    22    23   ar
    23    23    24   ar
    24    24     1    1
    25    24     4   ar
    26    22     6   ar
    27    21     8   ar
    28    15    11   ar
    29    20    16   ar
    30     1    25    1
    31     1    26    1
    32     2    27    1
    33     3    28    1
    34     5    29    1
    35     9    30    1
    36    12    31    1
    37    13    32    1
    38    14    33    1
    39    17    34    1
    40    18    35    1
    41    19    36    1
    42    23    37    1
