@<TRIPOS>MOLECULE
*****
 31 35 0 0 0
SMALL
GASTEIGER

@<TRIPOS>ATOM
      1 C           5.0573    1.2411    0.1503 C.3     1  UNL1       -0.0086
      2 C           5.7908   -0.0581    0.3808 C.2     1  UNL1       -0.0791
      3 C           4.9601   -1.1057    0.5040 C.2     1  UNL1       -0.0579
      4 C           3.6009   -0.6091    0.3684 C.ar    1  UNL1       -0.0208
      5 C           2.4054   -1.3053    0.4218 C.ar    1  UNL1       -0.0400
      6 C           1.2198   -0.5565    0.2554 C.ar    1  UNL1        0.0205
      7 S          -0.3861   -1.1654    0.2772 S.2     1  UNL1       -0.0876
      8 C          -1.0994    0.3703    0.0119 C.ar    1  UNL1        0.0292
      9 C          -0.1082    1.3330   -0.0911 C.ar    1  UNL1       -0.0386
     10 C           1.2297    0.8262    0.0450 C.ar    1  UNL1       -0.0099
     11 C           2.4729    1.5077   -0.0041 C.ar    1  UNL1       -0.0495
     12 C           3.6355    0.7679    0.1599 C.ar    1  UNL1       -0.0359
     13 C          -2.5410    0.5652   -0.0815 C.ar    1  UNL1        0.0534
     14 S          -3.1863    2.1586   -0.3576 S.2     1  UNL1       -0.0918
     15 C          -4.8082    1.6274   -0.3460 C.ar    1  UNL1        0.0038
     16 C          -4.8852    0.2777   -0.1395 C.ar    1  UNL1        0.0968
     17 N          -6.0754   -0.3828   -0.0890 N.ar    1  UNL1       -0.2514
     18 C          -5.8814   -1.7108    0.1261 C.ar    1  UNL1        0.0464
     19 C          -4.6351   -2.3251    0.2764 C.ar    1  UNL1        0.0464
     20 N          -3.4373   -1.6856    0.2295 N.ar    1  UNL1       -0.2508
     21 C          -3.5861   -0.3438    0.0141 C.ar    1  UNL1        0.1044
     22 H           5.2485    1.9476    0.9629 H       1  UNL1        0.0356
     23 H           5.3268    1.6761   -0.8162 H       1  UNL1        0.0356
     24 H           6.8682   -0.1223    0.4381 H       1  UNL1        0.0575
     25 H           5.2244   -2.1370    0.6730 H       1  UNL1        0.0621
     26 H           2.3743   -2.3768    0.5839 H       1  UNL1        0.0635
     27 H          -0.3097    2.3837   -0.2600 H       1  UNL1        0.0635
     28 H           2.5122    2.5802   -0.1659 H       1  UNL1        0.0627
     29 H          -5.6239    2.3209   -0.4897 H       1  UNL1        0.0715
     30 H          -6.7908   -2.3028    0.1782 H       1  UNL1        0.0845
     31 H          -4.5721   -3.3965    0.4458 H       1  UNL1        0.0845
@<TRIPOS>BOND
     1     1     2    1
     2     2     3    2
     3     3     4    1
     4     4     5   ar
     5     5     6   ar
     6     6     7   ar
     7     7     8   ar
     8     8     9   ar
     9     9    10   ar
    10    10    11   ar
    11    11    12   ar
    12     8    13    1
    13    13    14   ar
    14    14    15   ar
    15    15    16   ar
    16    16    17   ar
    17    17    18   ar
    18    18    19   ar
    19    19    20   ar
    20    20    21   ar
    21    12     1    1
    22    21    13   ar
    23    12     4   ar
    24    21    16   ar
    25    10     6   ar
    26     1    22    1
    27     1    23    1
    28     2    24    1
    29     3    25    1
    30     5    26    1
    31     9    27    1
    32    11    28    1
    33    15    29    1
    34    18    30    1
    35    19    31    1
