@<TRIPOS>MOLECULE
*****
 43 49 0 0 0
SMALL
GASTEIGER

@<TRIPOS>ATOM
      1 C          -4.7848    1.2942    0.5064 C.3     1  UNL1       -0.0080
      2 C          -6.0559    0.5056    0.3071 C.2     1  UNL1       -0.0791
      3 C          -5.8207   -0.7498   -0.1004 C.2     1  UNL1       -0.0579
      4 C          -4.3823   -0.9056   -0.2141 C.ar    1  UNL1       -0.0212
      5 C          -3.6574   -2.0208   -0.5583 C.ar    1  UNL1       -0.0537
      6 C          -2.2574   -1.9236   -0.5970 C.ar    1  UNL1       -0.0528
      7 C          -1.5235   -0.7306   -0.3351 C.ar    1  UNL1       -0.0086
      8 C          -2.3300    0.3833    0.1008 C.ar    1  UNL1       -0.0041
      9 C          -3.7406    0.2856    0.1290 C.ar    1  UNL1       -0.0282
     10 C          -1.5328    1.4879    0.4965 C.ar    1  UNL1        0.0080
     11 C          -1.9673    2.7018    0.9789 C.ar    1  UNL1        0.0100
     12 N          -0.8578    3.4611    1.2697 N.ar    1  UNL1       -0.3659
     13 C           0.2822    2.7508    0.9830 C.ar    1  UNL1        0.0100
     14 C          -0.1049    1.5210    0.4984 C.ar    1  UNL1        0.0077
     15 C           0.7499    0.4872    0.0620 C.ar    1  UNL1       -0.0069
     16 C           2.1933    0.5926    0.1223 C.ar    1  UNL1       -0.0421
     17 C           3.0975   -0.3885   -0.3407 C.ar    1  UNL1        0.0280
     18 C           4.5488   -0.2512   -0.2178 C.ar    1  UNL1        0.1636
     19 N           5.2829   -1.3517   -0.0292 N.ar    1  UNL1       -0.2160
     20 C           6.5878   -1.1355    0.1170 C.ar    1  UNL1        0.1200
     21 N           7.1940    0.0475    0.0913 N.ar    1  UNL1       -0.2241
     22 C           6.3646    1.0699   -0.0931 C.ar    1  UNL1        0.1200
     23 N           5.0450    0.9918   -0.2445 N.ar    1  UNL1       -0.2160
     24 C           2.3940   -1.4374   -0.9605 C.ar    1  UNL1        0.0004
     25 C           3.0236   -2.4642   -1.6323 C.ar    1  UNL1       -0.0159
     26 S           1.9204   -3.5137   -2.4047 S.2     1  UNL1       -0.1038
     27 C           0.5827   -2.5876   -1.8721 C.ar    1  UNL1       -0.0160
     28 C           0.9315   -1.5533   -1.0291 C.ar    1  UNL1       -0.0019
     29 C          -0.0221   -0.6393   -0.4411 C.ar    1  UNL1       -0.0013
     30 H          -4.7666    2.1605   -0.1609 H       1  UNL1        0.0356
     31 H          -4.6944    1.5961    1.5536 H       1  UNL1        0.0356
     32 H          -7.0388    0.9190    0.4821 H       1  UNL1        0.0575
     33 H          -6.5448   -1.5196   -0.3112 H       1  UNL1        0.0621
     34 H          -4.1479   -2.9639   -0.7764 H       1  UNL1        0.0624
     35 H          -1.7356   -2.8560   -0.7836 H       1  UNL1        0.0624
     36 H          -2.9472    3.1177    1.1543 H       1  UNL1        0.0813
     37 H          -0.8787    4.4026    1.6402 H       1  UNL1        0.1648
     38 H           1.2509    3.2015    1.1476 H       1  UNL1        0.0813
     39 H           2.6237    1.4890    0.5702 H       1  UNL1        0.0631
     40 H           7.2154   -2.0067    0.2715 H       1  UNL1        0.1048
     41 H           6.8042    2.0612   -0.1203 H       1  UNL1        0.1048
     42 H           4.0795   -2.6579   -1.7548 H       1  UNL1        0.0700
     43 H          -0.3807   -2.8710   -2.2613 H       1  UNL1        0.0700
@<TRIPOS>BOND
     1     1     2    1
     2     2     3    2
     3     3     4    1
     4     4     5   ar
     5     5     6   ar
     6     6     7   ar
     7     7     8   ar
     8     8     9   ar
     9     8    10   ar
    10    10    11   ar
    11    11    12   ar
    12    12    13   ar
    13    13    14   ar
    14    14    15   ar
    15    15    16   ar
    16    16    17   ar
    17    17    18    1
    18    18    19   ar
    19    19    20   ar
    20    20    21   ar
    21    21    22   ar
    22    22    23   ar
    23    17    24   ar
    24    24    25   ar
    25    25    26   ar
    26    26    27   ar
    27    27    28   ar
    28    28    29   ar
    29     9     1    1
    30    14    10   ar
    31    29    15   ar
    32     9     4   ar
    33    23    18   ar
    34    28    24   ar
    35    29     7   ar
    36     1    30    1
    37     1    31    1
    38     2    32    1
    39     3    33    1
    40     5    34    1
    41     6    35    1
    42    11    36    1
    43    12    37    1
    44    13    38    1
    45    16    39    1
    46    20    40    1
    47    22    41    1
    48    25    42    1
    49    27    43    1
