@<TRIPOS>MOLECULE
*****
 33 37 0 0 0
SMALL
GASTEIGER

@<TRIPOS>ATOM
      1 C           4.1693    1.2540   -0.4791 C.3     1  UNL1       -0.0083
      2 C           5.3871    0.3877   -0.2580 C.2     1  UNL1       -0.0791
      3 C           5.0747   -0.8822    0.0486 C.2     1  UNL1       -0.0579
      4 C           3.6247   -0.9916    0.0630 C.ar    1  UNL1       -0.0215
      5 C           2.8274   -2.1069    0.3279 C.ar    1  UNL1       -0.0537
      6 C           1.4335   -1.9765    0.2844 C.ar    1  UNL1       -0.0518
      7 C           0.9074   -0.7315   -0.0231 C.ar    1  UNL1        0.0024
      8 C           1.7104    0.4108   -0.2944 C.ar    1  UNL1       -0.0299
      9 C           0.8970    1.6722   -0.6083 C.3     1  UNL1        0.0005
     10 C          -0.4635    1.0618   -0.4711 C.ar    1  UNL1       -0.0171
     11 C          -1.8141    1.4301   -0.5720 C.ar    1  UNL1       -0.0293
     12 C          -2.5732    0.2876   -0.3003 C.ar    1  UNL1        0.0848
     13 N          -1.6863   -0.7516   -0.0399 N.ar    1  UNL1       -0.3515
     14 C          -0.4323   -0.2685   -0.1470 C.ar    1  UNL1        0.0508
     15 C          -4.0129    0.0856   -0.2631 C.ar    1  UNL1        0.1791
     16 N          -4.7793    1.1428   -0.5269 N.ar    1  UNL1       -0.2145
     17 C          -6.0812    0.8829   -0.4745 C.ar    1  UNL1        0.1201
     18 N          -6.6363   -0.2950   -0.1924 N.ar    1  UNL1       -0.2241
     19 C          -5.7567   -1.2651    0.0511 C.ar    1  UNL1        0.1201
     20 N          -4.4318   -1.1472    0.0335 N.ar    1  UNL1       -0.2145
     21 C           3.0758    0.2644   -0.2473 C.ar    1  UNL1       -0.0324
     22 H           4.1479    1.6434   -1.5008 H       1  UNL1        0.0356
     23 H           4.1332    2.0693    0.2490 H       1  UNL1        0.0356
     24 H           6.3967    0.7645   -0.3412 H       1  UNL1        0.0575
     25 H           5.7539   -1.6940    0.2518 H       1  UNL1        0.0621
     26 H           3.2798   -3.0647    0.5648 H       1  UNL1        0.0624
     27 H           0.7915   -2.8259    0.4858 H       1  UNL1        0.0624
     28 H           1.0874    2.0215   -1.6259 H       1  UNL1        0.0362
     29 H           1.0726    2.4509    0.1379 H       1  UNL1        0.0362
     30 H          -2.2193    2.4047   -0.8127 H       1  UNL1        0.0643
     31 H          -1.9672   -1.6965    0.1878 H       1  UNL1        0.1660
     32 H          -6.7556    1.7071   -0.6808 H       1  UNL1        0.1048
     33 H          -6.1605   -2.2441    0.2860 H       1  UNL1        0.1048
@<TRIPOS>BOND
     1     1     2    1
     2     2     3    2
     3     3     4    1
     4     4     5   ar
     5     5     6   ar
     6     6     7   ar
     7     7     8   ar
     8     8     9    1
     9     9    10    1
    10    10    11   ar
    11    11    12   ar
    12    12    13   ar
    13    13    14   ar
    14    12    15    1
    15    15    16   ar
    16    16    17   ar
    17    17    18   ar
    18    18    19   ar
    19    19    20   ar
    20     8    21   ar
    21    21     1    1
    22    21     4   ar
    23     7    14    1
    24    20    15   ar
    25    14    10   ar
    26     1    22    1
    27     1    23    1
    28     2    24    1
    29     3    25    1
    30     5    26    1
    31     6    27    1
    32     9    28    1
    33     9    29    1
    34    11    30    1
    35    13    31    1
    36    17    32    1
    37    19    33    1
