@<TRIPOS>MOLECULE
*****
 49 56 0 0 0
SMALL
GASTEIGER

@<TRIPOS>ATOM
      1 SI         -4.6352    3.3591    0.3439 Si      1  UNL1        0.0000
      2 C          -2.9407    2.6397    0.0788 C.2     1  UNL1        0.0000
      3 C          -2.9460    1.2935    0.1386 C.ar    1  UNL1        0.0000
      4 C          -1.8397    0.4016   -0.0509 C.ar    1  UNL1        0.0000
      5 C          -2.1186   -0.9351   -0.3328 C.ar    1  UNL1        0.0000
      6 N          -0.9370   -1.5480   -0.6776 N.ar    1  UNL1        0.0000
      7 C           0.1263   -0.6877   -0.5017 C.ar    1  UNL1        0.0000
      8 C           1.5087   -0.8976   -0.7141 C.ar    1  UNL1        0.0000
      9 C           2.4523    0.1053   -0.4020 C.ar    1  UNL1        0.0000
     10 C           3.8715   -0.0770   -0.6085 C.ar    1  UNL1        0.0000
     11 C           4.5438    0.1064   -1.8458 C.ar    1  UNL1        0.0000
     12 C           5.9602   -0.0872   -2.0399 C.ar    1  UNL1        0.0000
     13 C           6.8576   -0.4888   -1.0225 C.ar    1  UNL1        0.0000
     14 C           6.1764   -0.6669    0.1734 C.ar    1  UNL1        0.0000
     15 C           6.7045   -1.0551    1.3751 C.ar    1  UNL1        0.0000
     16 O           5.7079   -1.1181    2.3118 O.2     1  UNL1        0.0000
     17 C           4.5372   -0.7649    1.6952 C.ar    1  UNL1        0.0000
     18 C           4.7782   -0.4771    0.3761 C.ar    1  UNL1        0.0000
     19 C           1.8745    1.2538    0.1669 C.ar    1  UNL1        0.0000
     20 C           2.6194    2.3298    0.6089 C.ar    1  UNL1        0.0000
     21 S           1.6478    3.5365    1.3625 S.2     1  UNL1        0.0000
     22 C           0.2054    2.6362    1.1010 C.ar    1  UNL1        0.0000
     23 C           0.4900    1.5012    0.4001 C.ar    1  UNL1        0.0000
     24 C          -0.4377    0.4878   -0.0214 C.ar    1  UNL1        0.0000
     25 C          -3.4417   -1.5738   -0.2683 C.ar    1  UNL1        0.0000
     26 C          -3.6238   -2.9472   -0.4813 C.ar    1  UNL1        0.0000
     27 C          -4.8911   -3.5181   -0.3547 C.ar    1  UNL1        0.0000
     28 C          -5.9824   -2.7261   -0.0085 C.ar    1  UNL1        0.0000
     29 C          -5.8158   -1.3560    0.2056 C.ar    1  UNL1        0.0000
     30 C          -4.5528   -0.7595    0.0746 C.ar    1  UNL1        0.0000
     31 C          -4.3209    0.7047    0.2473 C.ar    1  UNL1        0.0000
     32 C          -5.3047    1.6204    0.3897 C.2     1  UNL1        0.0000
     33 H          -4.7628    4.0499    1.6496 H       1  UNL1        0.0000
     34 H          -5.1238    4.1218   -0.8299 H       1  UNL1        0.0000
     35 H          -2.1091    3.2875   -0.1350 H       1  UNL1        0.0000
     36 H          -0.8435   -2.5069   -0.9766 H       1  UNL1        0.0000
     37 H           1.8543   -1.8496   -1.1130 H       1  UNL1        0.0000
     38 H           3.9566    0.4192   -2.7114 H       1  UNL1        0.0000
     39 H           6.3614    0.0893   -3.0391 H       1  UNL1        0.0000
     40 H           7.9169   -0.6312   -1.1794 H       1  UNL1        0.0000
     41 H           7.6925   -1.3119    1.7294 H       1  UNL1        0.0000
     42 H           3.6589   -0.7702    2.3257 H       1  UNL1        0.0000
     43 H           3.6898    2.4784    0.5660 H       1  UNL1        0.0000
     44 H          -0.7248    2.9970    1.5076 H       1  UNL1        0.0000
     45 H          -2.7915   -3.5953   -0.7346 H       1  UNL1        0.0000
     46 H          -5.0255   -4.5844   -0.5182 H       1  UNL1        0.0000
     47 H          -6.9676   -3.1739    0.0954 H       1  UNL1        0.0000
     48 H          -6.6879   -0.7681    0.4743 H       1  UNL1        0.0000
     49 H          -6.3676    1.4564    0.4447 H       1  UNL1        0.0000
@<TRIPOS>BOND
     1     1     2    1
     2     2     3    2
     3     3     4   ar
     4     4     5   ar
     5     5     6   ar
     6     6     7   ar
     7     7     8   ar
     8     8     9   ar
     9     9    10    1
    10    10    11   ar
    11    11    12   ar
    12    12    13   ar
    13    13    14   ar
    14    14    15   ar
    15    15    16   ar
    16    16    17   ar
    17    17    18   ar
    18     9    19   ar
    19    19    20   ar
    20    20    21   ar
    21    21    22   ar
    22    22    23   ar
    23    23    24   ar
    24     5    25   ar
    25    25    26   ar
    26    26    27   ar
    27    27    28   ar
    28    28    29   ar
    29    29    30   ar
    30    30    31   ar
    31    31    32    2
    32    32     1    1
    33    31     3   ar
    34    24     4   ar
    35    30    25   ar
    36    24     7   ar
    37    18    10   ar
    38    23    19   ar
    39    18    14   ar
    40     1    33    1
    41     1    34    1
    42     2    35    1
    43     6    36    1
    44     8    37    1
    45    11    38    1
    46    12    39    1
    47    13    40    1
    48    15    41    1
    49    17    42    1
    50    20    43    1
    51    22    44    1
    52    26    45    1
    53    27    46    1
    54    28    47    1
    55    29    48    1
    56    32    49    1
