@<TRIPOS>MOLECULE
*****
 41 47 0 0 0
SMALL
GASTEIGER

@<TRIPOS>ATOM
      1 C           5.4185   -0.1028   -1.1484 C.3     1  UNL1       -0.0080
      2 C           6.5599    0.7628   -0.6761 C.2     1  UNL1       -0.0791
      3 C           6.1841    1.6411    0.2654 C.2     1  UNL1       -0.0579
      4 C           4.7663    1.4438    0.5066 C.ar    1  UNL1       -0.0212
      5 C           3.9314    2.1003    1.3780 C.ar    1  UNL1       -0.0537
      6 C           2.5859    1.7134    1.4187 C.ar    1  UNL1       -0.0528
      7 C           2.0411    0.6742    0.6020 C.ar    1  UNL1       -0.0078
      8 C           2.9396    0.0211   -0.2846 C.ar    1  UNL1       -0.0132
      9 C           2.4805   -1.0073   -1.1156 C.ar    1  UNL1       -0.0531
     10 C           1.1481   -1.4126   -1.0955 C.ar    1  UNL1       -0.0533
     11 C           0.2166   -0.8126   -0.2496 C.ar    1  UNL1       -0.0145
     12 C          -1.1172   -1.2947   -0.3008 C.ar    1  UNL1       -0.0435
     13 C          -2.1822   -0.8047    0.4793 C.ar    1  UNL1        0.0194
     14 C          -3.5287   -1.3489    0.3958 C.ar    1  UNL1        0.0453
     15 S          -3.8353   -3.0637    0.3865 S.2     1  UNL1       -0.0939
     16 C          -5.5530   -2.8736    0.2166 C.ar    1  UNL1       -0.0145
     17 C          -5.8121   -1.5519    0.1808 C.ar    1  UNL1        0.0073
     18 C          -6.8960   -0.6494    0.0638 C.ar    1  UNL1       -0.0361
     19 C          -6.3551    0.6524    0.1161 C.ar    1  UNL1        0.0028
     20 N          -4.9697    0.6272    0.2629 N.ar    1  UNL1       -0.3598
     21 C          -4.7211   -0.7167    0.2885 C.ar    1  UNL1        0.0615
     22 C          -1.8436    0.2506    1.3634 C.ar    1  UNL1        0.1087
     23 N          -2.6814    0.8911    2.2001 N.ar    1  UNL1       -0.1901
     24 S          -1.7945    2.0072    3.0284 S.2     1  UNL1        0.1165
     25 N          -0.3147    1.7774    2.3417 N.ar    1  UNL1       -0.1901
     26 C          -0.4186    0.7828    1.4402 C.ar    1  UNL1        0.1087
     27 C           0.6519    0.2443    0.6144 C.ar    1  UNL1        0.0180
     28 C           4.2819    0.4197   -0.3133 C.ar    1  UNL1       -0.0288
     29 H           5.2335    0.0508   -2.2155 H       1  UNL1        0.0356
     30 H           5.6194   -1.1567   -0.9347 H       1  UNL1        0.0356
     31 H           7.5653    0.6736   -1.0628 H       1  UNL1        0.0575
     32 H           6.7994    2.3698    0.7675 H       1  UNL1        0.0621
     33 H           4.2951    2.8956    2.0197 H       1  UNL1        0.0624
     34 H           1.9569    2.2537    2.1201 H       1  UNL1        0.0624
     35 H           3.1593   -1.5150   -1.7978 H       1  UNL1        0.0624
     36 H           0.8534   -2.2199   -1.7655 H       1  UNL1        0.0624
     37 H          -1.3435   -2.1024   -1.0021 H       1  UNL1        0.0631
     38 H          -6.2166   -3.7239    0.1584 H       1  UNL1        0.0700
     39 H          -7.9465   -0.8859   -0.0404 H       1  UNL1        0.0639
     40 H          -6.8577    1.6100    0.0714 H       1  UNL1        0.0807
     41 H          -4.3005    1.3795    0.3785 H       1  UNL1        0.1654
@<TRIPOS>BOND
     1     1     2    1
     2     2     3    2
     3     3     4    1
     4     4     5   ar
     5     5     6   ar
     6     6     7   ar
     7     7     8   ar
     8     8     9   ar
     9     9    10   ar
    10    10    11   ar
    11    11    12   ar
    12    12    13   ar
    13    13    14    1
    14    14    15   ar
    15    15    16   ar
    16    16    17   ar
    17    17    18   ar
    18    18    19   ar
    19    19    20   ar
    20    20    21   ar
    21    13    22   ar
    22    22    23   ar
    23    23    24   ar
    24    24    25   ar
    25    25    26   ar
    26    26    27   ar
    27     8    28   ar
    28    28     1    1
    29    28     4   ar
    30    27     7   ar
    31    27    11   ar
    32    21    14   ar
    33    26    22   ar
    34    21    17   ar
    35     1    29    1
    36     1    30    1
    37     2    31    1
    38     3    32    1
    39     5    33    1
    40     6    34    1
    41     9    35    1
    42    10    36    1
    43    12    37    1
    44    16    38    1
    45    18    39    1
    46    19    40    1
    47    20    41    1
