@<TRIPOS>MOLECULE
*****
 39 44 0 0 0
SMALL
GASTEIGER

@<TRIPOS>ATOM
      1 C           5.5488   -0.9115   -0.3877 C.3     1  UNL1       -0.0080
      2 C           6.6838   -0.0697    0.1409 C.2     1  UNL1       -0.0791
      3 C           6.2565    1.0162    0.8032 C.2     1  UNL1       -0.0579
      4 C           4.8050    1.0012    0.7790 C.ar    1  UNL1       -0.0212
      5 C           3.9111    1.8978    1.3201 C.ar    1  UNL1       -0.0537
      6 C           2.5424    1.6492    1.1532 C.ar    1  UNL1       -0.0528
      7 C           2.0426    0.5107    0.4489 C.ar    1  UNL1       -0.0070
      8 C           2.9928   -0.3850   -0.0910 C.ar    1  UNL1        0.0049
      9 C           2.5189   -1.4976   -0.7790 C.ar    1  UNL1        0.0363
     10 N           1.2146   -1.7843   -0.9686 N.ar    1  UNL1       -0.2543
     11 C           0.3036   -0.9438   -0.4622 C.ar    1  UNL1        0.0722
     12 C          -1.0384   -1.2557   -0.6679 C.ar    1  UNL1       -0.0274
     13 C          -2.1053   -0.4681   -0.1959 C.ar    1  UNL1       -0.0071
     14 C          -1.7508    0.6814    0.5133 C.ar    1  UNL1       -0.0528
     15 C          -0.4098    1.0203    0.7357 C.ar    1  UNL1       -0.0514
     16 C           0.6493    0.2199    0.2557 C.ar    1  UNL1        0.0081
     17 C          -3.5350   -0.8268   -0.4315 C.ar    1  UNL1        0.0468
     18 S          -3.9322   -2.2709   -1.3249 S.2     1  UNL1       -0.0923
     19 C          -5.6156   -2.0368   -1.1981 C.ar    1  UNL1        0.0038
     20 C          -5.9039   -0.8982   -0.5001 C.ar    1  UNL1        0.0968
     21 N          -7.1832   -0.4943   -0.2647 N.ar    1  UNL1       -0.2514
     22 C          -7.2013    0.6622    0.4471 C.ar    1  UNL1        0.0464
     23 C          -6.0667    1.3514    0.8833 C.ar    1  UNL1        0.0464
     24 N          -4.7813    0.9675    0.6603 N.ar    1  UNL1       -0.2508
     25 C          -4.7171   -0.1965   -0.0557 C.ar    1  UNL1        0.1039
     26 C           4.3580   -0.1258    0.0823 C.ar    1  UNL1       -0.0273
     27 H           5.5845   -0.9682   -1.4794 H       1  UNL1        0.0356
     28 H           5.5685   -1.9110    0.0561 H       1  UNL1        0.0356
     29 H           7.7236   -0.3263   -0.0057 H       1  UNL1        0.0575
     30 H           6.8579    1.7757    1.2758 H       1  UNL1        0.0621
     31 H           4.2508    2.7742    1.8619 H       1  UNL1        0.0624
     32 H           1.8566    2.3713    1.5893 H       1  UNL1        0.0624
     33 H           3.1969   -2.2245   -1.2181 H       1  UNL1        0.0836
     34 H          -1.2272   -2.1679   -1.2297 H       1  UNL1        0.0645
     35 H          -2.5023    1.3532    0.9175 H       1  UNL1        0.0624
     36 H          -0.2164    1.9304    1.2963 H       1  UNL1        0.0624
     37 H          -6.3115   -2.7371   -1.6365 H       1  UNL1        0.0715
     38 H          -8.1929    1.0447    0.6722 H       1  UNL1        0.0845
     39 H          -6.1750    2.2726    1.4492 H       1  UNL1        0.0845
@<TRIPOS>BOND
     1     1     2    1
     2     2     3    2
     3     3     4    1
     4     4     5   ar
     5     5     6   ar
     6     6     7   ar
     7     7     8   ar
     8     8     9   ar
     9     9    10   ar
    10    10    11   ar
    11    11    12   ar
    12    12    13   ar
    13    13    14   ar
    14    14    15   ar
    15    15    16   ar
    16    13    17    1
    17    17    18   ar
    18    18    19   ar
    19    19    20   ar
    20    20    21   ar
    21    21    22   ar
    22    22    23   ar
    23    23    24   ar
    24    24    25   ar
    25     8    26   ar
    26    26     1    1
    27    26     4   ar
    28    16     7   ar
    29    25    17   ar
    30    16    11   ar
    31    25    20   ar
    32     1    27    1
    33     1    28    1
    34     2    29    1
    35     3    30    1
    36     5    31    1
    37     6    32    1
    38     9    33    1
    39    12    34    1
    40    14    35    1
    41    15    36    1
    42    19    37    1
    43    22    38    1
    44    23    39    1
