@<TRIPOS>MOLECULE
*****
 38 43 0 0 0
SMALL
GASTEIGER

@<TRIPOS>ATOM
      1 C          -4.4290   -1.9806    0.5298 C.3     1  UNL1       -0.0051
      2 C          -5.8706   -1.5458    0.4005 C.2     1  UNL1       -0.0790
      3 C          -5.9972   -0.2610    0.0283 C.2     1  UNL1       -0.0578
      4 C          -4.6609    0.2923   -0.1284 C.ar    1  UNL1       -0.0183
      5 C          -4.2776    1.5700   -0.4981 C.ar    1  UNL1       -0.0535
      6 C          -2.9081    1.8801   -0.5847 C.ar    1  UNL1       -0.0498
      7 C          -1.9391    0.8892   -0.2947 C.ar    1  UNL1        0.0288
      8 C          -2.3830   -0.3888    0.0746 C.ar    1  UNL1        0.1403
      9 O          -1.3397   -1.2347    0.3222 O.2     1  UNL1       -0.4545
     10 C          -0.1925   -0.5205    0.1169 C.ar    1  UNL1        0.1375
     11 C           1.1175   -1.0071    0.2622 C.ar    1  UNL1       -0.0089
     12 C           2.2254   -0.1505    0.0341 C.ar    1  UNL1        0.0121
     13 C           3.6000   -0.6124    0.2055 C.ar    1  UNL1        0.0717
     14 C           4.4884   -0.0095    1.0954 C.ar    1  UNL1       -0.0357
     15 C           5.7772   -0.5232    1.2187 C.ar    1  UNL1       -0.0583
     16 C           6.1436   -1.6273    0.4604 C.ar    1  UNL1       -0.0436
     17 C           5.1994   -2.1775   -0.3886 C.ar    1  UNL1        0.0283
     18 N           3.9426   -1.7010   -0.5265 N.ar    1  UNL1       -0.2550
     19 C           1.8531    1.1536   -0.3657 C.ar    1  UNL1       -0.0009
     20 C           2.7532    2.1411   -0.7152 C.ar    1  UNL1       -0.0160
     21 S           1.9813    3.6225   -1.1524 S.2     1  UNL1       -0.1038
     22 C           0.4098    2.9597   -0.9222 C.ar    1  UNL1       -0.0159
     23 C           0.5292    1.6617   -0.5223 C.ar    1  UNL1        0.0011
     24 C          -0.5439    0.7607   -0.2541 C.ar    1  UNL1        0.0362
     25 C          -3.7261   -0.7094    0.1642 C.ar    1  UNL1        0.0063
     26 H          -4.1984   -2.2831    1.5550 H       1  UNL1        0.0357
     27 H          -4.1941   -2.7830   -0.1748 H       1  UNL1        0.0357
     28 H          -6.7008   -2.2115    0.5906 H       1  UNL1        0.0575
     29 H          -6.9118    0.2863   -0.1328 H       1  UNL1        0.0621
     30 H          -5.0215    2.3293   -0.7207 H       1  UNL1        0.0624
     31 H          -2.6127    2.8827   -0.8751 H       1  UNL1        0.0625
     32 H           1.2784   -2.0414    0.5553 H       1  UNL1        0.0661
     33 H           4.1828    0.8421    1.6953 H       1  UNL1        0.0639
     34 H           6.4854   -0.0680    1.9051 H       1  UNL1        0.0619
     35 H           7.1380   -2.0530    0.5327 H       1  UNL1        0.0633
     36 H           5.4333   -3.0448   -0.9995 H       1  UNL1        0.0830
     37 H           3.8329    2.0984   -0.7534 H       1  UNL1        0.0700
     38 H          -0.4644    3.5645   -1.1054 H       1  UNL1        0.0700
@<TRIPOS>BOND
     1     1     2    1
     2     2     3    2
     3     3     4    1
     4     4     5   ar
     5     5     6   ar
     6     6     7   ar
     7     7     8   ar
     8     8     9   ar
     9     9    10   ar
    10    10    11   ar
    11    11    12   ar
    12    12    13    1
    13    13    14   ar
    14    14    15   ar
    15    15    16   ar
    16    16    17   ar
    17    17    18   ar
    18    12    19   ar
    19    19    20   ar
    20    20    21   ar
    21    21    22   ar
    22    22    23   ar
    23    23    24   ar
    24     8    25   ar
    25    25     1    1
    26    25     4   ar
    27    24     7   ar
    28    24    10   ar
    29    18    13   ar
    30    23    19   ar
    31     1    26    1
    32     1    27    1
    33     2    28    1
    34     3    29    1
    35     5    30    1
    36     6    31    1
    37    11    32    1
    38    14    33    1
    39    15    34    1
    40    16    35    1
    41    17    36    1
    42    20    37    1
    43    22    38    1
