@<TRIPOS>MOLECULE
*****
 39 45 0 0 0
SMALL
GASTEIGER

@<TRIPOS>ATOM
      1 C           4.8328   -0.5511    1.7857 C.3     1  UNL1       -0.0080
      2 C           6.1111   -0.2278    1.0494 C.2     1  UNL1       -0.0791
      3 C           5.8915    0.2538   -0.1835 C.2     1  UNL1       -0.0579
      4 C           4.4544    0.2979   -0.3871 C.ar    1  UNL1       -0.0212
      5 C           3.7440    0.7177   -1.4950 C.ar    1  UNL1       -0.0537
      6 C           2.3450    0.6662   -1.4540 C.ar    1  UNL1       -0.0531
      7 C           1.6462    0.1988   -0.3159 C.ar    1  UNL1       -0.0113
      8 C           0.2349    0.1519   -0.2870 C.ar    1  UNL1       -0.0260
      9 C          -0.7510    0.5496   -1.3558 C.3     1  UNL1       -0.0001
     10 C          -2.1094    0.2554   -0.6969 C.2     1  UNL1       -0.0281
     11 C          -1.9355   -0.2323    0.5483 C.2     1  UNL1       -0.0476
     12 C          -0.5141   -0.2995    0.8079 C.ar    1  UNL1        0.0075
     13 C           0.1502   -0.7387    1.9615 C.ar    1  UNL1        0.1079
     14 N          -0.3928   -1.2017    3.0985 N.ar    1  UNL1       -0.1902
     15 S           0.8767   -1.5669    4.1034 S.2     1  UNL1        0.1165
     16 N           2.1672   -1.1558    3.1452 N.ar    1  UNL1       -0.1901
     17 C           1.6640   -0.7080    1.9801 C.ar    1  UNL1        0.1084
     18 C           2.4036   -0.2331    0.8256 C.ar    1  UNL1        0.0146
     19 C           3.8040   -0.1720    0.7604 C.ar    1  UNL1       -0.0267
     20 C          -3.4069    0.4507   -1.2725 C.ar    1  UNL1        0.0239
     21 S          -3.5138    1.0921   -2.8968 S.2     1  UNL1       -0.0952
     22 C          -5.2248    1.0637   -2.9338 C.ar    1  UNL1       -0.0094
     23 C          -5.7147    0.5847   -1.7572 C.ar    1  UNL1        0.0269
     24 S          -7.4213    0.3343   -1.2341 S.2     1  UNL1       -0.0961
     25 C          -6.7144   -0.2411    0.2612 C.ar    1  UNL1       -0.0231
     26 C          -5.3161   -0.2330    0.3295 C.ar    1  UNL1       -0.0459
     27 C          -4.6939    0.2545   -0.8596 C.ar    1  UNL1        0.0037
     28 H           4.7468    0.0605    2.6883 H       1  UNL1        0.0356
     29 H           4.7892   -1.6174    2.0253 H       1  UNL1        0.0356
     30 H           7.0897   -0.3748    1.4843 H       1  UNL1        0.0575
     31 H           6.6279    0.5591   -0.9088 H       1  UNL1        0.0621
     32 H           4.2549    1.0808   -2.3812 H       1  UNL1        0.0624
     33 H           1.8004    1.0007   -2.3353 H       1  UNL1        0.0624
     34 H          -0.6552    1.6150   -1.5891 H       1  UNL1        0.0362
     35 H          -0.6134   -0.0636   -2.2523 H       1  UNL1        0.0362
     36 H          -2.6630   -0.5387    1.2783 H       1  UNL1        0.0627
     37 H          -5.7963    1.3896   -3.7918 H       1  UNL1        0.0705
     38 H          -7.3952   -0.5658    1.0366 H       1  UNL1        0.0694
     39 H          -4.8029   -0.5727    1.2181 H       1  UNL1        0.0629
@<TRIPOS>BOND
     1     1     2    1
     2     2     3    2
     3     3     4    1
     4     4     5   ar
     5     5     6   ar
     6     6     7   ar
     7     7     8   ar
     8     8     9    1
     9     9    10    1
    10    10    11    2
    11    11    12    1
    12    12    13   ar
    13    13    14   ar
    14    14    15   ar
    15    15    16   ar
    16    16    17   ar
    17    17    18   ar
    18    18    19   ar
    19    10    20    1
    20    20    21   ar
    21    21    22   ar
    22    22    23   ar
    23    23    24   ar
    24    24    25   ar
    25    25    26   ar
    26    26    27   ar
    27    19     1    1
    28    27    20   ar
    29    19     4   ar
    30    27    23   ar
    31    18     7   ar
    32    12     8   ar
    33    17    13   ar
    34     1    28    1
    35     1    29    1
    36     2    30    1
    37     3    31    1
    38     5    32    1
    39     6    33    1
    40     9    34    1
    41     9    35    1
    42    11    36    1
    43    22    37    1
    44    25    38    1
    45    26    39    1
