@<TRIPOS>MOLECULE
*****
 40 45 0 0 0
SMALL
GASTEIGER

@<TRIPOS>ATOM
      1 C          -4.6680   -0.2318    2.1839 C.3     1  UNL1       -0.0066
      2 C          -6.1304   -0.4465    1.8822 C.2     1  UNL1       -0.0791
      3 C          -6.3772   -0.5708    0.5681 C.2     1  UNL1       -0.0579
      4 C          -5.1113   -0.4523   -0.1387 C.ar    1  UNL1       -0.0199
      5 C          -4.8637   -0.5132   -1.4967 C.ar    1  UNL1       -0.0536
      6 C          -3.5443   -0.3695   -1.9518 C.ar    1  UNL1       -0.0514
      7 C          -2.4848   -0.1663   -1.0298 C.ar    1  UNL1        0.0092
      8 C          -1.0711    0.0134   -1.1607 C.ar    1  UNL1        0.0255
      9 C          -0.1883    0.0655   -2.2435 C.ar    1  UNL1        0.0380
     10 N           1.1402    0.2576   -2.0457 N.ar    1  UNL1       -0.2542
     11 C           1.6303    0.3822   -0.7847 C.ar    1  UNL1        0.0736
     12 C           0.8151    0.3587    0.3471 C.ar    1  UNL1       -0.0117
     13 C          -0.5481    0.1661    0.1215 C.ar    1  UNL1        0.0510
     14 N          -1.5993    0.0939    1.0041 N.ar    1  UNL1       -0.3538
     15 C          -2.7802   -0.1109    0.3358 C.ar    1  UNL1        0.0516
     16 C          -4.0854   -0.2516    0.7980 C.ar    1  UNL1       -0.0126
     17 C           3.0708    0.6005   -0.7010 C.ar    1  UNL1        0.0095
     18 C           3.7842    1.5128   -1.5326 C.ar    1  UNL1       -0.0519
     19 C           5.2000    1.7648   -1.4587 C.ar    1  UNL1       -0.0605
     20 C           6.0693    1.1250   -0.5500 C.ar    1  UNL1       -0.0526
     21 C           5.3688    0.2230    0.2382 C.ar    1  UNL1        0.0000
     22 C           5.9191   -0.5890    1.1956 C.ar    1  UNL1        0.0094
     23 N           4.8934   -1.3525    1.7081 N.ar    1  UNL1       -0.3659
     24 C           3.7017   -1.0304    1.0906 C.ar    1  UNL1        0.0100
     25 C           3.9623   -0.0341    0.1783 C.ar    1  UNL1        0.0086
     26 H          -4.5023    0.7342    2.6689 H       1  UNL1        0.0356
     27 H          -4.2666   -1.0461    2.7935 H       1  UNL1        0.0356
     28 H          -6.8881   -0.4930    2.6516 H       1  UNL1        0.0575
     29 H          -7.3316   -0.7300    0.0930 H       1  UNL1        0.0621
     30 H          -5.6710   -0.6687   -2.2050 H       1  UNL1        0.0624
     31 H          -3.3358   -0.4149   -3.0173 H       1  UNL1        0.0624
     32 H          -0.5095   -0.0385   -3.2732 H       1  UNL1        0.0836
     33 H           1.2157    0.5006    1.3431 H       1  UNL1        0.0660
     34 H          -1.5146    0.1782    2.0064 H       1  UNL1        0.1659
     35 H           3.2155    2.0658   -2.2834 H       1  UNL1        0.0624
     36 H           5.6213    2.4916   -2.1536 H       1  UNL1        0.0618
     37 H           7.1320    1.3130   -0.5059 H       1  UNL1        0.0624
     38 H           6.9329   -0.7133    1.5507 H       1  UNL1        0.0813
     39 H           5.0020   -2.0634    2.4196 H       1  UNL1        0.1648
     40 H           2.7969   -1.5601    1.3543 H       1  UNL1        0.0813
@<TRIPOS>BOND
     1     1     2    1
     2     2     3    2
     3     3     4    1
     4     4     5   ar
     5     5     6   ar
     6     6     7   ar
     7     7     8   ar
     8     8     9   ar
     9     9    10   ar
    10    10    11   ar
    11    11    12   ar
    12    12    13   ar
    13    13    14   ar
    14    14    15   ar
    15    15    16   ar
    16    11    17    1
    17    17    18   ar
    18    18    19   ar
    19    19    20   ar
    20    20    21   ar
    21    21    22   ar
    22    22    23   ar
    23    23    24   ar
    24    24    25   ar
    25    16     1    1
    26    25    17   ar
    27    16     4   ar
    28    25    21   ar
    29    15     7   ar
    30    13     8   ar
    31     1    26    1
    32     1    27    1
    33     2    28    1
    34     3    29    1
    35     5    30    1
    36     6    31    1
    37     9    32    1
    38    12    33    1
    39    14    34    1
    40    18    35    1
    41    19    36    1
    42    20    37    1
    43    22    38    1
    44    23    39    1
    45    24    40    1
