@<TRIPOS>MOLECULE
*****
 49 55 0 0 0
SMALL
GASTEIGER

@<TRIPOS>ATOM
      1 C           5.8034    0.1150    0.5323 C.3     1  UNL1        0.0000
      2 C           6.8372    1.1273    0.1099 C.2     1  UNL1        0.0000
      3 C           6.3092    2.1288   -0.6055 C.2     1  UNL1        0.0000
      4 C           4.8844    1.8749   -0.7233 C.ar    1  UNL1        0.0000
      5 C           3.9424    2.6399   -1.3733 C.ar    1  UNL1        0.0000
      6 C           2.6223    2.1966   -1.3550 C.ar    1  UNL1        0.0000
      7 C           2.2300    0.9982   -0.6956 C.ar    1  UNL1        0.0000
      8 C           0.7970    0.5863   -0.7187 C.ar    1  UNL1        0.0000
      9 N          -0.0515    1.4170   -1.3895 N.ar    1  UNL1        0.0000
     10 C          -1.3616    1.0852   -1.4378 C.ar    1  UNL1        0.0000
     11 C          -1.9046   -0.0476   -0.8469 C.ar    1  UNL1        0.0000
     12 C          -1.0206   -0.8893   -0.1650 C.ar    1  UNL1        0.0000
     13 C           0.3464   -0.5839   -0.0889 C.ar    1  UNL1        0.0000
     14 C           1.3316   -1.4227    0.6158 C.ar    1  UNL1        0.0000
     15 C           1.0381   -2.5703    1.2647 C.2     1  UNL1        0.0000
     16 SI          2.5492   -3.3391    2.0287 Si      1  UNL1        0.0000
     17 C           3.5326   -1.9076    1.3386 C.2     1  UNL1        0.0000
     18 C           2.7655   -1.0323    0.6527 C.ar    1  UNL1        0.0000
     19 C           3.2204    0.2148   -0.0249 C.ar    1  UNL1        0.0000
     20 C           4.5421    0.6819   -0.0574 C.ar    1  UNL1        0.0000
     21 C          -3.3381   -0.3504   -0.9363 C.ar    1  UNL1        0.0000
     22 C          -3.7767   -1.1854   -1.9805 C.ar    1  UNL1        0.0000
     23 C          -5.1223   -1.5073   -2.1227 C.ar    1  UNL1        0.0000
     24 C          -6.0536   -0.9998   -1.2217 C.ar    1  UNL1        0.0000
     25 C          -5.6555   -0.1661   -0.1664 C.ar    1  UNL1        0.0000
     26 C          -6.6107    0.3351    0.7337 C.ar    1  UNL1        0.0000
     27 C          -6.2371    1.1636    1.7905 C.ar    1  UNL1        0.0000
     28 C          -4.9017    1.5018    1.9621 C.ar    1  UNL1        0.0000
     29 C          -3.9399    1.0119    1.0758 C.ar    1  UNL1        0.0000
     30 C          -4.2865    0.1703   -0.0084 C.ar    1  UNL1        0.0000
     31 H           5.7530    0.0725    1.6241 H       1  UNL1        0.0000
     32 H           6.0450   -0.8611    0.1021 H       1  UNL1        0.0000
     33 H           7.8842    1.0415    0.3634 H       1  UNL1        0.0000
     34 H           6.8224    2.9775   -1.0275 H       1  UNL1        0.0000
     35 H           4.2102    3.5579   -1.8847 H       1  UNL1        0.0000
     36 H           1.8739    2.7996   -1.8686 H       1  UNL1        0.0000
     37 H          -1.9876    1.7859   -1.9854 H       1  UNL1        0.0000
     38 H          -1.4174   -1.7827    0.3087 H       1  UNL1        0.0000
     39 H           0.0803   -3.0506    1.3762 H       1  UNL1        0.0000
     40 H           2.9140   -4.6305    1.3991 H       1  UNL1        0.0000
     41 H           2.5072   -3.3332    3.5104 H       1  UNL1        0.0000
     42 H           4.5881   -1.8894    1.5315 H       1  UNL1        0.0000
     43 H          -3.0597   -1.5890   -2.6939 H       1  UNL1        0.0000
     44 H          -5.4457   -2.1524   -2.9355 H       1  UNL1        0.0000
     45 H          -7.1018   -1.2624   -1.3501 H       1  UNL1        0.0000
     46 H          -7.6624    0.0815    0.6172 H       1  UNL1        0.0000
     47 H          -6.9889    1.5428    2.4774 H       1  UNL1        0.0000
     48 H          -4.6027    2.1468    2.7843 H       1  UNL1        0.0000
     49 H          -2.9036    1.2984    1.2455 H       1  UNL1        0.0000
@<TRIPOS>BOND
     1     1     2    1
     2     2     3    2
     3     3     4    1
     4     4     5   ar
     5     5     6   ar
     6     6     7   ar
     7     7     8   ar
     8     8     9   ar
     9     9    10   ar
    10    10    11   ar
    11    11    12   ar
    12    12    13   ar
    13    13    14   ar
    14    14    15    2
    15    15    16    1
    16    16    17    1
    17    17    18    2
    18    18    19   ar
    19    19    20   ar
    20    11    21    1
    21    21    22   ar
    22    22    23   ar
    23    23    24   ar
    24    24    25   ar
    25    25    26   ar
    26    26    27   ar
    27    27    28   ar
    28    28    29   ar
    29    29    30   ar
    30    20     1    1
    31    30    21   ar
    32    20     4   ar
    33    30    25   ar
    34    19     7   ar
    35    13     8   ar
    36    18    14   ar
    37     1    31    1
    38     1    32    1
    39     2    33    1
    40     3    34    1
    41     5    35    1
    42     6    36    1
    43    10    37    1
    44    12    38    1
    45    15    39    1
    46    16    40    1
    47    16    41    1
    48    17    42    1
    49    22    43    1
    50    23    44    1
    51    24    45    1
    52    26    46    1
    53    27    47    1
    54    28    48    1
    55    29    49    1
