@<TRIPOS>MOLECULE
*****
 42 47 0 0 0
SMALL
GASTEIGER

@<TRIPOS>ATOM
      1 C          -5.1211   -0.5269    0.5460 C.3     1  UNL1       -0.0080
      2 C          -6.2722    0.1492   -0.1584 C.2     1  UNL1       -0.0791
      3 C          -5.8627    1.0323   -1.0811 C.2     1  UNL1       -0.0579
      4 C          -4.4105    1.0262   -1.0767 C.ar    1  UNL1       -0.0212
      5 C          -3.5372    1.7637   -1.8480 C.ar    1  UNL1       -0.0537
      6 C          -2.1590    1.5823   -1.6605 C.ar    1  UNL1       -0.0514
      7 C          -1.6108    0.6768   -0.7157 C.ar    1  UNL1        0.0090
      8 C          -0.1703    0.5580   -0.5938 C.ar    1  UNL1        0.0793
      9 N           0.6393    1.3048   -1.3771 N.ar    1  UNL1       -0.2537
     10 C           1.9909    1.1931   -1.2615 C.ar    1  UNL1        0.0360
     11 C           2.6620    0.3497   -0.3827 C.ar    1  UNL1        0.0008
     12 C           1.8530   -0.4312    0.4374 C.ar    1  UNL1       -0.0427
     13 C           0.4455   -0.3324    0.3368 C.ar    1  UNL1        0.0107
     14 C          -0.4906   -1.0620    1.0989 C.ar    1  UNL1        0.0092
     15 C          -0.2235   -1.9954    2.0719 C.ar    1  UNL1        0.0101
     16 N          -1.4348   -2.4471    2.5436 N.ar    1  UNL1       -0.3659
     17 C          -2.4651   -1.8125    1.8836 C.ar    1  UNL1        0.0100
     18 C          -1.9044   -0.9444    0.9776 C.ar    1  UNL1        0.0081
     19 C          -2.5615   -0.0758    0.0716 C.ar    1  UNL1       -0.0027
     20 C          -3.9445    0.1139   -0.1247 C.ar    1  UNL1       -0.0281
     21 C           4.1283    0.2880   -0.3232 C.ar    1  UNL1       -0.0164
     22 C           4.8937    0.0860   -1.4844 C.ar    1  UNL1       -0.0540
     23 C           6.2890    0.0279   -1.4273 C.ar    1  UNL1       -0.0612
     24 C           6.9438    0.1718   -0.2070 C.ar    1  UNL1       -0.0617
     25 C           6.2051    0.3725    0.9559 C.ar    1  UNL1       -0.0612
     26 C           4.8099    0.4290    0.8977 C.ar    1  UNL1       -0.0540
     27 H          -5.1477   -1.6056    0.3676 H       1  UNL1        0.0356
     28 H          -5.1459   -0.3022    1.6160 H       1  UNL1        0.0356
     29 H          -7.3072   -0.0650    0.0667 H       1  UNL1        0.0575
     30 H          -6.4747    1.6463   -1.7214 H       1  UNL1        0.0621
     31 H          -3.8989    2.4716   -2.5864 H       1  UNL1        0.0624
     32 H          -1.4854    2.1756   -2.2807 H       1  UNL1        0.0624
     33 H           2.5420    1.8500   -1.9314 H       1  UNL1        0.0836
     34 H           2.3005   -1.1242    1.1436 H       1  UNL1        0.0631
     35 H           0.6994   -2.3864    2.4773 H       1  UNL1        0.0813
     36 H          -1.5527   -3.1436    3.2684 H       1  UNL1        0.1648
     37 H          -3.4867   -2.0542    2.1363 H       1  UNL1        0.0813
     38 H           4.4056   -0.0427   -2.4488 H       1  UNL1        0.0624
     39 H           6.8626   -0.1326   -2.3366 H       1  UNL1        0.0618
     40 H           8.0289    0.1276   -0.1625 H       1  UNL1        0.0618
     41 H           6.7132    0.4886    1.9098 H       1  UNL1        0.0618
     42 H           4.2547    0.5990    1.8184 H       1  UNL1        0.0624
@<TRIPOS>BOND
     1     1     2    1
     2     2     3    2
     3     3     4    1
     4     4     5   ar
     5     5     6   ar
     6     6     7   ar
     7     7     8   ar
     8     8     9   ar
     9     9    10   ar
    10    10    11   ar
    11    11    12   ar
    12    12    13   ar
    13    13    14   ar
    14    14    15   ar
    15    15    16   ar
    16    16    17   ar
    17    17    18   ar
    18    18    19   ar
    19    19    20   ar
    20    11    21    1
    21    21    22   ar
    22    22    23   ar
    23    23    24   ar
    24    24    25   ar
    25    25    26   ar
    26    20     1    1
    27    26    21   ar
    28    20     4   ar
    29    19     7   ar
    30    13     8   ar
    31    18    14   ar
    32     1    27    1
    33     1    28    1
    34     2    29    1
    35     3    30    1
    36     5    31    1
    37     6    32    1
    38    10    33    1
    39    12    34    1
    40    15    35    1
    41    16    36    1
    42    17    37    1
    43    22    38    1
    44    23    39    1
    45    24    40    1
    46    25    41    1
    47    26    42    1
