@<TRIPOS>MOLECULE
*****
 41 46 0 0 0
SMALL
GASTEIGER

@<TRIPOS>ATOM
      1 C          -4.5438   -0.4548    0.3762 C.3     1  UNL1        0.0000
      2 C          -5.2700   -1.7523    0.6167 C.2     1  UNL1        0.0000
      3 C          -4.4355   -2.7931    0.7267 C.2     1  UNL1        0.0000
      4 C          -3.0834   -2.2867    0.5702 C.ar    1  UNL1        0.0000
      5 C          -1.9104   -3.0097    0.6118 C.ar    1  UNL1        0.0000
      6 C          -0.7217   -2.3156    0.4361 C.ar    1  UNL1        0.0000
      7 C          -0.7295   -0.9120    0.2224 C.ar    1  UNL1        0.0000
      8 C           0.5100   -0.2735    0.0521 C.ar    1  UNL1        0.0000
      9 O           1.7294   -0.8822    0.0734 O.2     1  UNL1        0.0000
     10 C           2.7141    0.0585   -0.1282 C.ar    1  UNL1        0.0000
     11 C           2.0709    1.2826   -0.2773 C.ar    1  UNL1        0.0000
     12 C           0.6635    1.0811   -0.1638 C.ar    1  UNL1        0.0000
     13 C          -0.4972    1.8910   -0.2192 C.ar    1  UNL1        0.0000
     14 C          -0.3247    3.2761   -0.4407 C.ar    1  UNL1        0.0000
     15 C          -1.4227    4.1241   -0.5055 C.ar    1  UNL1        0.0000
     16 C          -2.6948    3.5989   -0.3507 C.ar    1  UNL1        0.0000
     17 C          -2.8708    2.2256   -0.1308 C.ar    1  UNL1        0.0000
     18 C          -1.7913    1.3093   -0.0543 C.ar    1  UNL1        0.0000
     19 C          -1.9156   -0.1242    0.1717 C.ar    1  UNL1        0.0000
     20 C          -3.1006   -0.8869    0.3576 C.ar    1  UNL1        0.0000
     21 C           4.0925   -0.2576   -0.1612 C.2     1  UNL1        0.0000
     22 C           5.1046    0.6121   -0.3559 C.2     1  UNL1        0.0000
     23 C           6.4374    0.0246   -0.3443 C.2     1  UNL1        0.0000
     24 C           6.4757   -1.3047   -0.1409 C.2     1  UNL1        0.0000
     25 SI          4.7371   -2.0100    0.0717 Si      1  UNL1        0.0000
     26 H          -4.7440    0.2367    1.1997 H       1  UNL1        0.0000
     27 H          -4.8486   -0.0359   -0.5871 H       1  UNL1        0.0000
     28 H          -6.3461   -1.8202    0.6901 H       1  UNL1        0.0000
     29 H          -4.6923   -3.8256    0.8993 H       1  UNL1        0.0000
     30 H          -1.9096   -4.0815    0.7753 H       1  UNL1        0.0000
     31 H           0.2175   -2.8646    0.4648 H       1  UNL1        0.0000
     32 H           2.5695    2.2253   -0.4506 H       1  UNL1        0.0000
     33 H           0.6660    3.7058   -0.5645 H       1  UNL1        0.0000
     34 H          -1.2847    5.1881   -0.6760 H       1  UNL1        0.0000
     35 H          -3.5622    4.2529   -0.3995 H       1  UNL1        0.0000
     36 H          -3.8958    1.8978   -0.0205 H       1  UNL1        0.0000
     37 H           4.9880    1.6768   -0.5139 H       1  UNL1        0.0000
     38 H           7.3181    0.6378   -0.4916 H       1  UNL1        0.0000
     39 H           7.3492   -1.9353   -0.0953 H       1  UNL1        0.0000
     40 H           4.4019   -2.9320   -1.0435 H       1  UNL1        0.0000
     41 H           4.5499   -2.5470    1.4439 H       1  UNL1        0.0000
@<TRIPOS>BOND
     1     1     2    1
     2     2     3    2
     3     3     4    1
     4     4     5   ar
     5     5     6   ar
     6     6     7   ar
     7     7     8   ar
     8     8     9   ar
     9     9    10   ar
    10    10    11   ar
    11    11    12   ar
    12    12    13   ar
    13    13    14   ar
    14    14    15   ar
    15    15    16   ar
    16    16    17   ar
    17    17    18   ar
    18    18    19   ar
    19    19    20   ar
    20    10    21    1
    21    21    22    2
    22    22    23    1
    23    23    24    2
    24    24    25    1
    25    20     1    1
    26    25    21    1
    27    20     4   ar
    28    19     7   ar
    29    12     8   ar
    30    18    13   ar
    31     1    26    1
    32     1    27    1
    33     2    28    1
    34     3    29    1
    35     5    30    1
    36     6    31    1
    37    11    32    1
    38    14    33    1
    39    15    34    1
    40    16    35    1
    41    17    36    1
    42    22    37    1
    43    23    38    1
    44    24    39    1
    45    25    40    1
    46    25    41    1
