@<TRIPOS>MOLECULE
*****
 49 56 0 0 0
SMALL
GASTEIGER

@<TRIPOS>ATOM
      1 C           6.7905    0.5619   -1.5129 C.3     1  UNL1       -0.0066
      2 C           7.8450   -0.4979   -1.2943 C.2     1  UNL1       -0.0790
      3 C           7.4114   -1.5173   -0.5337 C.2     1  UNL1       -0.0564
      4 C           6.0313   -1.2423   -0.1701 C.ar    1  UNL1       -0.0017
      5 C           5.1378   -1.9698    0.5951 C.ar    1  UNL1        0.0358
      6 N           3.8623   -1.5860    0.8552 N.ar    1  UNL1       -0.2508
      7 C           3.5256   -0.4028    0.2925 C.ar    1  UNL1        0.1126
      8 C           4.3506    0.4036   -0.4935 C.ar    1  UNL1        0.0716
      9 N           3.6406    1.5181   -0.8743 N.ar    1  UNL1       -0.3514
     10 C           2.3785    1.4192   -0.3412 C.ar    1  UNL1        0.0675
     11 C           1.1374    2.0985   -0.2708 C.ar    1  UNL1       -0.0118
     12 C           0.3257    1.2802    0.5018 C.ar    1  UNL1        0.0562
     13 N           1.0375    0.1716    0.9059 N.ar    1  UNL1       -0.3508
     14 C           2.2906    0.2643    0.3718 C.ar    1  UNL1        0.0911
     15 C          -1.0338    1.4868    0.9161 C.ar    1  UNL1        0.0438
     16 S          -1.2961    2.7360    2.0741 S.2     1  UNL1       -0.0940
     17 C          -2.9448    2.3457    2.2352 C.ar    1  UNL1       -0.0154
     18 C          -3.3164    1.3099    1.4093 C.ar    1  UNL1       -0.0019
     19 C          -2.2156    0.8303    0.5903 C.ar    1  UNL1        0.0066
     20 C          -2.3782   -0.2126   -0.3873 C.ar    1  UNL1       -0.0084
     21 C          -1.3847   -0.6897   -1.2885 C.ar    1  UNL1       -0.0534
     22 C          -1.6457   -1.7225   -2.1808 C.ar    1  UNL1       -0.0611
     23 C          -2.9030   -2.2930   -2.2045 C.ar    1  UNL1       -0.0611
     24 C          -3.9036   -1.8178   -1.3486 C.ar    1  UNL1       -0.0534
     25 C          -3.7100   -0.7640   -0.4179 C.ar    1  UNL1       -0.0095
     26 C          -4.8075   -0.2768    0.4393 C.ar    1  UNL1       -0.0096
     27 C          -6.1202   -0.8181    0.4012 C.ar    1  UNL1       -0.0534
     28 C          -7.1752   -0.3556    1.2015 C.ar    1  UNL1       -0.0611
     29 C          -6.9720    0.6840    2.0919 C.ar    1  UNL1       -0.0611
     30 C          -5.7126    1.2599    2.1839 C.ar    1  UNL1       -0.0534
     31 C          -4.6390    0.7930    1.3751 C.ar    1  UNL1       -0.0091
     32 C           5.6469   -0.0215   -0.7378 C.ar    1  UNL1       -0.0096
     33 H           7.1040    1.5229   -1.0962 H       1  UNL1        0.0356
     34 H           6.5430    0.6600   -2.5734 H       1  UNL1        0.0356
     35 H           8.8397   -0.4287   -1.7122 H       1  UNL1        0.0575
     36 H           7.9649   -2.3919   -0.2324 H       1  UNL1        0.0621
     37 H           5.4268   -2.9173    1.0396 H       1  UNL1        0.0836
     38 H           3.9545    2.2930   -1.4435 H       1  UNL1        0.1660
     39 H           0.8629    3.0450   -0.7162 H       1  UNL1        0.0660
     40 H           0.7281   -0.5996    1.4852 H       1  UNL1        0.1660
     41 H          -3.5384    2.9119    2.9372 H       1  UNL1        0.0700
     42 H          -0.3968   -0.2491   -1.3309 H       1  UNL1        0.0624
     43 H          -0.8684   -2.0714   -2.8550 H       1  UNL1        0.0618
     44 H          -3.1213   -3.1026   -2.8962 H       1  UNL1        0.0618
     45 H          -4.8665   -2.3113   -1.4424 H       1  UNL1        0.0624
     46 H          -6.3681   -1.6347   -0.2707 H       1  UNL1        0.0624
     47 H          -8.1563   -0.8171    1.1192 H       1  UNL1        0.0618
     48 H          -7.7876    1.0441    2.7126 H       1  UNL1        0.0618
     49 H          -5.5736    2.0715    2.8913 H       1  UNL1        0.0624
@<TRIPOS>BOND
     1     1     2    1
     2     2     3    2
     3     3     4    1
     4     4     5   ar
     5     5     6   ar
     6     6     7   ar
     7     7     8   ar
     8     8     9   ar
     9     9    10   ar
    10    10    11   ar
    11    11    12   ar
    12    12    13   ar
    13    13    14   ar
    14    12    15    1
    15    15    16   ar
    16    16    17   ar
    17    17    18   ar
    18    18    19   ar
    19    19    20   ar
    20    20    21   ar
    21    21    22   ar
    22    22    23   ar
    23    23    24   ar
    24    24    25   ar
    25    25    26   ar
    26    26    27   ar
    27    27    28   ar
    28    28    29   ar
    29    29    30   ar
    30    30    31   ar
    31     8    32   ar
    32    32     1    1
    33    32     4   ar
    34    14     7   ar
    35    19    15   ar
    36    25    20   ar
    37    31    26   ar
    38    14    10   ar
    39    31    18   ar
    40     1    33    1
    41     1    34    1
    42     2    35    1
    43     3    36    1
    44     5    37    1
    45     9    38    1
    46    11    39    1
    47    13    40    1
    48    17    41    1
    49    21    42    1
    50    22    43    1
    51    23    44    1
    52    24    45    1
    53    27    46    1
    54    28    47    1
    55    29    48    1
    56    30    49    1
