@<TRIPOS>MOLECULE
*****
 47 53 0 0 0
SMALL
GASTEIGER

@<TRIPOS>ATOM
      1 C          -5.4857    1.1654    0.0123 C.3     1  UNL1       -0.0079
      2 C          -6.6288    0.2021   -0.2019 C.2     1  UNL1       -0.0791
      3 C          -6.2087   -1.0568   -0.3973 C.2     1  UNL1       -0.0565
      4 C          -4.7616   -1.0377   -0.3301 C.ar    1  UNL1       -0.0031
      5 C          -3.8407   -2.0370   -0.4593 C.ar    1  UNL1        0.0357
      6 N          -2.5027   -1.8184   -0.3630 N.ar    1  UNL1       -0.2537
      7 C          -1.9728   -0.5909   -0.1310 C.ar    1  UNL1        0.0802
      8 C          -2.9217    0.4917    0.0111 C.ar    1  UNL1        0.0158
      9 C          -4.3052    0.2490   -0.0913 C.ar    1  UNL1       -0.0252
     10 C          -2.2950    1.7292    0.2490 C.ar    1  UNL1        0.0299
     11 C          -2.8631    2.9647    0.4340 C.ar    1  UNL1        0.1000
     12 O          -1.8893    3.8997    0.6359 O.2     1  UNL1       -0.4698
     13 C          -0.6913    3.2506    0.5784 C.ar    1  UNL1        0.1000
     14 C          -0.8963    1.9133    0.3421 C.ar    1  UNL1        0.0283
     15 C           0.0615    0.8915    0.2107 C.ar    1  UNL1       -0.0039
     16 C           1.4372    1.1548    0.3161 C.ar    1  UNL1       -0.0450
     17 C           2.3706    0.1314    0.1834 C.ar    1  UNL1       -0.0096
     18 C           3.7940    0.4944    0.3079 C.ar    1  UNL1       -0.0173
     19 C           4.5360    0.8801   -0.8194 C.ar    1  UNL1       -0.0540
     20 C           5.8821    1.2318   -0.6999 C.ar    1  UNL1       -0.0612
     21 C           6.5016    1.2051    0.5482 C.ar    1  UNL1       -0.0617
     22 C           5.7772    0.8277    1.6774 C.ar    1  UNL1       -0.0612
     23 C           4.4311    0.4759    1.5585 C.ar    1  UNL1       -0.0540
     24 C           1.9197   -1.1873   -0.0606 C.ar    1  UNL1       -0.0095
     25 C           2.8630   -2.2380   -0.1975 C.ar    1  UNL1       -0.0534
     26 C           2.4891   -3.5540   -0.4377 C.ar    1  UNL1       -0.0611
     27 C           1.1503   -3.8545   -0.5478 C.ar    1  UNL1       -0.0611
     28 C           0.1983   -2.8374   -0.4169 C.ar    1  UNL1       -0.0534
     29 C           0.5134   -1.4717   -0.1710 C.ar    1  UNL1       -0.0075
     30 C          -0.4928   -0.4122   -0.0353 C.ar    1  UNL1        0.0165
     31 H          -5.4767    1.9248   -0.7747 H       1  UNL1        0.0356
     32 H          -5.5553    1.6227    1.0033 H       1  UNL1        0.0356
     33 H          -7.6657    0.5084   -0.1957 H       1  UNL1        0.0575
     34 H          -6.8120   -1.9327   -0.5728 H       1  UNL1        0.0621
     35 H          -4.1302   -3.0653   -0.6468 H       1  UNL1        0.0836
     36 H          -3.8692    3.3556    0.4560 H       1  UNL1        0.1036
     37 H           0.1761    3.8790    0.7235 H       1  UNL1        0.1036
     38 H           1.7962    2.1646    0.5036 H       1  UNL1        0.0630
     39 H           4.0639    0.9030   -1.7997 H       1  UNL1        0.0624
     40 H           6.4460    1.5257   -1.5813 H       1  UNL1        0.0618
     41 H           7.5495    1.4784    0.6410 H       1  UNL1        0.0618
     42 H           6.2592    0.8063    2.6513 H       1  UNL1        0.0618
     43 H           3.8764    0.1811    2.4472 H       1  UNL1        0.0624
     44 H           3.9310   -2.0401   -0.1168 H       1  UNL1        0.0624
     45 H           3.2416   -4.3305   -0.5364 H       1  UNL1        0.0618
     46 H           0.8282   -4.8751   -0.7354 H       1  UNL1        0.0618
     47 H          -0.8286   -3.1684   -0.5185 H       1  UNL1        0.0624
@<TRIPOS>BOND
     1     1     2    1
     2     2     3    2
     3     3     4    1
     4     4     5   ar
     5     5     6   ar
     6     6     7   ar
     7     7     8   ar
     8     8     9   ar
     9     8    10   ar
    10    10    11   ar
    11    11    12   ar
    12    12    13   ar
    13    13    14   ar
    14    14    15   ar
    15    15    16   ar
    16    16    17   ar
    17    17    18    1
    18    18    19   ar
    19    19    20   ar
    20    20    21   ar
    21    21    22   ar
    22    22    23   ar
    23    17    24   ar
    24    24    25   ar
    25    25    26   ar
    26    26    27   ar
    27    27    28   ar
    28    28    29   ar
    29    29    30   ar
    30     9     1    1
    31    14    10   ar
    32    30    15   ar
    33     9     4   ar
    34    23    18   ar
    35    29    24   ar
    36    30     7   ar
    37     1    31    1
    38     1    32    1
    39     2    33    1
    40     3    34    1
    41     5    35    1
    42    11    36    1
    43    13    37    1
    44    16    38    1
    45    19    39    1
    46    20    40    1
    47    21    41    1
    48    22    42    1
    49    23    43    1
    50    25    44    1
    51    26    45    1
    52    27    46    1
    53    28    47    1
