@<TRIPOS>MOLECULE
*****
 47 53 0 0 0
SMALL
GASTEIGER

@<TRIPOS>ATOM
      1 SI         -1.2034   -3.9858   -0.0982 Si      1  UNL1        0.0000
      2 C          -2.2332   -2.4563    0.1175 C.2     1  UNL1        0.0000
      3 C          -1.4947   -1.3325    0.0431 C.ar    1  UNL1        0.0000
      4 C          -1.9392    0.0216    0.1881 C.ar    1  UNL1        0.0000
      5 C          -0.9782    1.0086    0.4077 C.ar    1  UNL1        0.0000
      6 N          -1.6352    2.1875    0.6764 N.ar    1  UNL1        0.0000
      7 C          -2.9967    2.0347    0.5212 C.ar    1  UNL1        0.0000
      8 C          -4.0464    2.9823    0.6601 C.ar    1  UNL1        0.0000
      9 C          -5.3816    2.6288    0.3889 C.ar    1  UNL1        0.0000
     10 C          -5.4999    1.3179   -0.0470 C.ar    1  UNL1        0.0000
     11 C          -6.6796    0.7446   -0.4599 C.ar    1  UNL1        0.0000
     12 N          -6.3877   -0.5361   -0.8896 N.ar    1  UNL1        0.0000
     13 C          -5.0348   -0.7878   -0.7632 C.ar    1  UNL1        0.0000
     14 C          -4.5032    0.3353   -0.2020 C.ar    1  UNL1        0.0000
     15 C          -3.1644    0.7026    0.1502 C.ar    1  UNL1        0.0000
     16 C           0.4791    0.8222    0.3480 C.ar    1  UNL1        0.0000
     17 C           1.3785    1.8816    0.5103 C.ar    1  UNL1        0.0000
     18 C           2.7546    1.6633    0.3971 C.ar    1  UNL1        0.0000
     19 C           3.2660    0.3885    0.1158 C.ar    1  UNL1        0.0000
     20 C           2.3567   -0.6719   -0.0457 C.ar    1  UNL1        0.0000
     21 C           0.9698   -0.4782    0.0707 C.ar    1  UNL1        0.0000
     22 C          -0.0202   -1.5883   -0.0575 C.ar    1  UNL1        0.0000
     23 C           0.3065   -2.8956   -0.1644 C.2     1  UNL1        0.0000
     24 C           4.7158    0.1656   -0.0047 C.ar    1  UNL1        0.0000
     25 C           5.4885    0.9062   -0.9145 C.ar    1  UNL1        0.0000
     26 C           6.8651    0.6945   -1.0294 C.ar    1  UNL1        0.0000
     27 C           7.4923   -0.2616   -0.2345 C.ar    1  UNL1        0.0000
     28 C           6.7445   -1.0062    0.6742 C.ar    1  UNL1        0.0000
     29 C           5.3679   -0.7943    0.7871 C.ar    1  UNL1        0.0000
     30 H          -1.2157   -4.8614    1.0986 H       1  UNL1        0.0000
     31 H          -1.4636   -4.6752   -1.3853 H       1  UNL1        0.0000
     32 H          -3.2854   -2.5349    0.3188 H       1  UNL1        0.0000
     33 H          -1.1911    3.0626    0.9077 H       1  UNL1        0.0000
     34 H          -3.8202    4.0004    0.9680 H       1  UNL1        0.0000
     35 H          -6.2006    3.3297    0.4741 H       1  UNL1        0.0000
     36 H          -7.6907    1.1237   -0.5162 H       1  UNL1        0.0000
     37 H          -7.0612   -1.1823   -1.2791 H       1  UNL1        0.0000
     38 H          -4.6212   -1.7159   -1.1224 H       1  UNL1        0.0000
     39 H           1.0345    2.8892    0.7186 H       1  UNL1        0.0000
     40 H           3.4334    2.5027    0.5370 H       1  UNL1        0.0000
     41 H           2.7502   -1.6582   -0.2766 H       1  UNL1        0.0000
     42 H           1.2865   -3.3390   -0.2130 H       1  UNL1        0.0000
     43 H           5.0159    1.6497   -1.5532 H       1  UNL1        0.0000
     44 H           7.4450    1.2748   -1.7422 H       1  UNL1        0.0000
     45 H           8.5628   -0.4265   -0.3233 H       1  UNL1        0.0000
     46 H           7.2311   -1.7513    1.2982 H       1  UNL1        0.0000
     47 H           4.8034   -1.3793    1.5107 H       1  UNL1        0.0000
@<TRIPOS>BOND
     1     1     2    1
     2     2     3    2
     3     3     4   ar
     4     4     5   ar
     5     5     6   ar
     6     6     7   ar
     7     7     8   ar
     8     8     9   ar
     9     9    10   ar
    10    10    11   ar
    11    11    12   ar
    12    12    13   ar
    13    13    14   ar
    14    14    15   ar
    15     5    16   ar
    16    16    17   ar
    17    17    18   ar
    18    18    19   ar
    19    19    20   ar
    20    20    21   ar
    21    21    22   ar
    22    22    23    2
    23    19    24    1
    24    24    25   ar
    25    25    26   ar
    26    26    27   ar
    27    27    28   ar
    28    28    29   ar
    29    23     1    1
    30    29    24   ar
    31    22     3   ar
    32    15     4   ar
    33    21    16   ar
    34    15     7   ar
    35    14    10   ar
    36     1    30    1
    37     1    31    1
    38     2    32    1
    39     6    33    1
    40     8    34    1
    41     9    35    1
    42    11    36    1
    43    12    37    1
    44    13    38    1
    45    17    39    1
    46    18    40    1
    47    20    41    1
    48    23    42    1
    49    25    43    1
    50    26    44    1
    51    27    45    1
    52    28    46    1
    53    29    47    1
