@<TRIPOS>MOLECULE
*****
 45 52 0 0 0
SMALL
GASTEIGER

@<TRIPOS>ATOM
      1 C          -5.3857    1.3220    0.5042 C.3     1  UNL1       -0.0079
      2 C          -6.5973    0.4215    0.5515 C.2     1  UNL1       -0.0791
      3 C          -6.2731   -0.8795    0.5014 C.2     1  UNL1       -0.0565
      4 C          -4.8282   -0.9574    0.4171 C.ar    1  UNL1       -0.0031
      5 C          -3.9882   -2.0355    0.3430 C.ar    1  UNL1        0.0357
      6 N          -2.6392   -1.9092    0.2691 N.ar    1  UNL1       -0.2537
      7 C          -2.0460   -0.6848    0.2654 C.ar    1  UNL1        0.0803
      8 C          -2.8825    0.4792    0.3413 C.ar    1  UNL1        0.0158
      9 C          -4.2778    0.3185    0.4168 C.ar    1  UNL1       -0.0252
     10 C          -2.1401    1.6850    0.3278 C.ar    1  UNL1        0.0299
     11 C          -2.6066    2.9747    0.3838 C.ar    1  UNL1        0.1000
     12 O          -1.5618    3.8528    0.3433 O.2     1  UNL1       -0.4698
     13 C          -0.4160    3.1170    0.2604 C.ar    1  UNL1        0.1000
     14 C          -0.7207    1.7786    0.2498 C.ar    1  UNL1        0.0283
     15 C           0.1742    0.6966    0.1741 C.ar    1  UNL1       -0.0038
     16 C           1.6213    0.8363    0.0971 C.ar    1  UNL1       -0.0434
     17 C           2.5273   -0.2478    0.0185 C.ar    1  UNL1        0.0122
     18 C           3.9723   -0.1195   -0.0565 C.ar    1  UNL1        0.0997
     19 N           4.7640   -0.9322    0.7255 N.ar    1  UNL1       -0.2527
     20 C           6.1298   -0.8420    0.7115 C.ar    1  UNL1        0.0304
     21 C           6.9071    0.0286   -0.0415 C.ar    1  UNL1       -0.0153
     22 C           6.1496    0.8882   -0.8570 C.ar    1  UNL1        0.1034
     23 N           6.6584    1.8217   -1.6771 N.ar    1  UNL1       -0.1907
     24 S           5.3670    2.5567   -2.4142 S.2     1  UNL1        0.1165
     25 N           4.1061    1.7359   -1.7189 N.ar    1  UNL1       -0.1886
     26 C           4.6429    0.8309   -0.8774 C.ar    1  UNL1        0.1257
     27 C           1.8151   -1.4545    0.0285 C.ar    1  UNL1        0.0093
     28 C           2.3581   -2.7161   -0.0598 C.ar    1  UNL1        0.0101
     29 N           1.3247   -3.6188   -0.0200 N.ar    1  UNL1       -0.3659
     30 C           0.1249   -2.9559    0.0738 C.ar    1  UNL1        0.0101
     31 C           0.3808   -1.6035    0.1032 C.ar    1  UNL1        0.0098
     32 C          -0.5826   -0.5537    0.1858 C.ar    1  UNL1        0.0179
     33 H          -5.4210    1.9614   -0.3823 H       1  UNL1        0.0356
     34 H          -5.3183    1.9179    1.4187 H       1  UNL1        0.0356
     35 H          -7.6082    0.7989    0.6183 H       1  UNL1        0.0575
     36 H          -6.9409   -1.7254    0.5190 H       1  UNL1        0.0621
     37 H          -4.3600   -3.0543    0.3394 H       1  UNL1        0.0836
     38 H          -3.5792    3.4388    0.4496 H       1  UNL1        0.1036
     39 H           0.4970    3.6937    0.2180 H       1  UNL1        0.1036
     40 H           2.0367    1.8441    0.1072 H       1  UNL1        0.0631
     41 H           6.6174   -1.5503    1.3815 H       1  UNL1        0.0830
     42 H           7.9865    0.0468   -0.0045 H       1  UNL1        0.0655
     43 H           3.3804   -3.0612   -0.1360 H       1  UNL1        0.0813
     44 H           1.4284   -4.6242   -0.0575 H       1  UNL1        0.1648
     45 H          -0.7968   -3.5200    0.1088 H       1  UNL1        0.0813
@<TRIPOS>BOND
     1     1     2    1
     2     2     3    2
     3     3     4    1
     4     4     5   ar
     5     5     6   ar
     6     6     7   ar
     7     7     8   ar
     8     8     9   ar
     9     8    10   ar
    10    10    11   ar
    11    11    12   ar
    12    12    13   ar
    13    13    14   ar
    14    14    15   ar
    15    15    16   ar
    16    16    17   ar
    17    17    18    1
    18    18    19   ar
    19    19    20   ar
    20    20    21   ar
    21    21    22   ar
    22    22    23   ar
    23    23    24   ar
    24    24    25   ar
    25    25    26   ar
    26    17    27   ar
    27    27    28   ar
    28    28    29   ar
    29    29    30   ar
    30    30    31   ar
    31    31    32   ar
    32     9     1    1
    33    14    10   ar
    34    32    15   ar
    35     9     4   ar
    36    26    18   ar
    37    31    27   ar
    38    32     7   ar
    39    26    22   ar
    40     1    33    1
    41     1    34    1
    42     2    35    1
    43     3    36    1
    44     5    37    1
    45    11    38    1
    46    13    39    1
    47    16    40    1
    48    20    41    1
    49    21    42    1
    50    28    43    1
    51    29    44    1
    52    30    45    1
