@<TRIPOS>MOLECULE
*****
 46 53 0 0 0
SMALL
GASTEIGER

@<TRIPOS>ATOM
      1 C          -5.6741   -0.7032    0.0493 C.3     1  UNL1       -0.0079
      2 C          -6.7252    0.3480   -0.2169 C.2     1  UNL1       -0.0791
      3 C          -6.1999    1.5728   -0.3717 C.2     1  UNL1       -0.0565
      4 C          -4.7638    1.4442   -0.2231 C.ar    1  UNL1       -0.0031
      5 C          -3.7655    2.3784   -0.2885 C.ar    1  UNL1        0.0357
      6 N          -2.4561    2.0641   -0.1208 N.ar    1  UNL1       -0.2537
      7 C          -2.0664    0.7846    0.1261 C.ar    1  UNL1        0.0803
      8 C          -3.0741   -0.2347    0.2032 C.ar    1  UNL1        0.0158
      9 C          -4.4234    0.1200    0.0249 C.ar    1  UNL1       -0.0252
     10 C          -2.5333   -1.5180    0.4612 C.ar    1  UNL1        0.0299
     11 C          -3.1974   -2.7115    0.5974 C.ar    1  UNL1        0.1000
     12 O          -2.3070   -3.7176    0.8405 O.2     1  UNL1       -0.4698
     13 C          -1.0614   -3.1620    0.8608 C.ar    1  UNL1        0.1000
     14 C          -1.1494   -1.8114    0.6316 C.ar    1  UNL1        0.0283
     15 C          -0.0962   -0.8821    0.5729 C.ar    1  UNL1       -0.0039
     16 C           1.3052   -1.2270    0.7501 C.ar    1  UNL1       -0.0443
     17 C           2.3461   -0.2840    0.6834 C.ar    1  UNL1        0.0004
     18 C           3.7438   -0.6058    0.8284 C.ar    1  UNL1        0.0438
     19 S           4.4114   -1.2743    2.2801 S.2     1  UNL1       -0.0939
     20 C           6.0255   -1.3510    1.6307 C.ar    1  UNL1       -0.0145
     21 C           5.9768   -0.8894    0.3645 C.ar    1  UNL1        0.0073
     22 C           6.8031   -0.6563   -0.7621 C.ar    1  UNL1       -0.0361
     23 C           5.9759   -0.1355   -1.7813 C.ar    1  UNL1        0.0028
     24 N           4.6516   -0.0230   -1.3617 N.ar    1  UNL1       -0.3598
     25 C           4.7375   -0.4852   -0.0790 C.ar    1  UNL1        0.0614
     26 C           1.8521    1.0008    0.4421 C.ar    1  UNL1        0.0083
     27 C           2.5919    2.1580    0.3583 C.ar    1  UNL1        0.0100
     28 N           1.7153    3.1899    0.1257 N.ar    1  UNL1       -0.3659
     29 C           0.4283    2.7094    0.0634 C.ar    1  UNL1        0.0101
     30 C           0.4646    1.3485    0.2667 C.ar    1  UNL1        0.0098
     31 C          -0.6463    0.4507    0.3079 C.ar    1  UNL1        0.0179
     32 H          -5.6774   -1.4547   -0.7453 H       1  UNL1        0.0356
     33 H          -5.8347   -1.1629    1.0286 H       1  UNL1        0.0356
     34 H          -7.7812    0.1227   -0.2732 H       1  UNL1        0.0575
     35 H          -6.7242    2.4936   -0.5694 H       1  UNL1        0.0621
     36 H          -3.9711    3.4261   -0.4790 H       1  UNL1        0.0836
     37 H          -4.2292   -3.0269    0.5577 H       1  UNL1        0.1036
     38 H          -0.2534   -3.8554    1.0472 H       1  UNL1        0.1036
     39 H           1.5716   -2.2668    0.9356 H       1  UNL1        0.0630
     40 H           6.8534   -1.7253    2.2147 H       1  UNL1        0.0700
     41 H           7.8659   -0.8372   -0.8516 H       1  UNL1        0.0639
     42 H           6.2317    0.1666   -2.7888 H       1  UNL1        0.0807
     43 H           3.8242    0.3120   -1.8424 H       1  UNL1        0.1654
     44 H           3.6520    2.3529    0.4552 H       1  UNL1        0.0813
     45 H           1.9736    4.1634    0.0280 H       1  UNL1        0.1648
     46 H          -0.3905    3.3946   -0.1081 H       1  UNL1        0.0813
@<TRIPOS>BOND
     1     1     2    1
     2     2     3    2
     3     3     4    1
     4     4     5   ar
     5     5     6   ar
     6     6     7   ar
     7     7     8   ar
     8     8     9   ar
     9     8    10   ar
    10    10    11   ar
    11    11    12   ar
    12    12    13   ar
    13    13    14   ar
    14    14    15   ar
    15    15    16   ar
    16    16    17   ar
    17    17    18    1
    18    18    19   ar
    19    19    20   ar
    20    20    21   ar
    21    21    22   ar
    22    22    23   ar
    23    23    24   ar
    24    24    25   ar
    25    17    26   ar
    26    26    27   ar
    27    27    28   ar
    28    28    29   ar
    29    29    30   ar
    30    30    31   ar
    31     9     1    1
    32    14    10   ar
    33    31    15   ar
    34     9     4   ar
    35    25    18   ar
    36    30    26   ar
    37    31     7   ar
    38    25    21   ar
    39     1    32    1
    40     1    33    1
    41     2    34    1
    42     3    35    1
    43     5    36    1
    44    11    37    1
    45    13    38    1
    46    16    39    1
    47    20    40    1
    48    22    41    1
    49    23    42    1
    50    24    43    1
    51    27    44    1
    52    28    45    1
    53    29    46    1
