@<TRIPOS>MOLECULE
*****
 43 49 0 0 0
SMALL
GASTEIGER

@<TRIPOS>ATOM
      1 C          -5.2675   -0.1986    0.9250 C.3     1  UNL1        0.0000
      2 C          -6.3663    0.5688    0.2314 C.2     1  UNL1        0.0000
      3 C          -5.8946    1.4018   -0.7069 C.2     1  UNL1        0.0000
      4 C          -4.4529    1.2590   -0.7157 C.ar    1  UNL1        0.0000
      5 C          -3.5042    1.8765   -1.4782 C.ar    1  UNL1        0.0000
      6 N          -2.1831    1.6122   -1.3443 N.ar    1  UNL1        0.0000
      7 C          -1.7224    0.7125   -0.4380 C.ar    1  UNL1        0.0000
      8 C          -2.6710    0.0271    0.3956 C.ar    1  UNL1        0.0000
      9 C          -4.0442    0.3253    0.2317 C.ar    1  UNL1        0.0000
     10 C          -2.0624   -0.8922    1.3044 C.ar    1  UNL1        0.0000
     11 C          -2.7555   -1.6682    2.2070 C.ar    1  UNL1        0.0000
     12 S          -1.7277   -2.6640    3.1485 S.2     1  UNL1        0.0000
     13 C          -0.3339   -2.0668    2.3565 C.ar    1  UNL1        0.0000
     14 C          -0.6382   -1.1278    1.3935 C.ar    1  UNL1        0.0000
     15 C           0.3392   -0.4802    0.5944 C.ar    1  UNL1        0.0000
     16 C           1.7627   -0.7427    0.7063 C.ar    1  UNL1        0.0000
     17 C           2.7415   -0.1188   -0.0824 C.ar    1  UNL1        0.0000
     18 C           4.1568   -0.3977    0.0416 C.2     1  UNL1        0.0000
     19 C           4.9931    0.0919    0.9792 C.2     1  UNL1        0.0000
     20 C           6.3621   -0.3933    0.8971 C.2     1  UNL1        0.0000
     21 C           6.6001   -1.2769   -0.0896 C.2     1  UNL1        0.0000
     22 SI          5.0437   -1.6193   -1.0962 Si      1  UNL1        0.0000
     23 C           2.1915    0.8093   -0.9744 C.ar    1  UNL1        0.0000
     24 C           2.9631    1.5773   -1.8190 C.ar    1  UNL1        0.0000
     25 S           2.0124    2.6112   -2.7914 S.2     1  UNL1        0.0000
     26 C           0.5599    2.0517   -2.0719 C.ar    1  UNL1        0.0000
     27 C           0.7651    1.0906   -1.1039 C.ar    1  UNL1        0.0000
     28 C          -0.2826    0.4623   -0.3323 C.ar    1  UNL1        0.0000
     29 H          -5.3972   -1.2716    0.7572 H       1  UNL1        0.0000
     30 H          -5.2597    0.0414    1.9920 H       1  UNL1        0.0000
     31 H          -7.4128    0.4491    0.4752 H       1  UNL1        0.0000
     32 H          -6.4589    2.0617   -1.3456 H       1  UNL1        0.0000
     33 H          -3.7595    2.6126   -2.2327 H       1  UNL1        0.0000
     34 H          -3.8130   -1.7368    2.3996 H       1  UNL1        0.0000
     35 H           0.6260   -2.4562    2.6622 H       1  UNL1        0.0000
     36 H           2.1148   -1.4679    1.4381 H       1  UNL1        0.0000
     37 H           4.6993    0.7929    1.7515 H       1  UNL1        0.0000
     38 H           7.1159   -0.0516    1.5960 H       1  UNL1        0.0000
     39 H           7.5382   -1.7553   -0.3226 H       1  UNL1        0.0000
     40 H           5.1725   -1.1236   -2.4891 H       1  UNL1        0.0000
     41 H           4.5714   -3.0160   -0.9232 H       1  UNL1        0.0000
     42 H           4.0387    1.6001   -1.9267 H       1  UNL1        0.0000
     43 H          -0.3606    2.4904   -2.4239 H       1  UNL1        0.0000
@<TRIPOS>BOND
     1     1     2    1
     2     2     3    2
     3     3     4    1
     4     4     5   ar
     5     5     6   ar
     6     6     7   ar
     7     7     8   ar
     8     8     9   ar
     9     8    10   ar
    10    10    11   ar
    11    11    12   ar
    12    12    13   ar
    13    13    14   ar
    14    14    15   ar
    15    15    16   ar
    16    16    17   ar
    17    17    18    1
    18    18    19    2
    19    19    20    1
    20    20    21    2
    21    21    22    1
    22    17    23   ar
    23    23    24   ar
    24    24    25   ar
    25    25    26   ar
    26    26    27   ar
    27    27    28   ar
    28     9     1    1
    29    14    10   ar
    30    28    15   ar
    31     9     4   ar
    32    22    18    1
    33    27    23   ar
    34    28     7   ar
    35     1    29    1
    36     1    30    1
    37     2    31    1
    38     3    32    1
    39     5    33    1
    40    11    34    1
    41    13    35    1
    42    16    36    1
    43    19    37    1
    44    20    38    1
    45    21    39    1
    46    22    40    1
    47    22    41    1
    48    24    42    1
    49    26    43    1
