@<TRIPOS>MOLECULE
*****
 50 57 0 0 0
SMALL
GASTEIGER

@<TRIPOS>ATOM
      1 C           5.8317    1.3988   -0.4466 C.3     1  UNL1        0.0000
      2 C           7.0383    0.5610   -0.1011 C.2     1  UNL1        0.0000
      3 C           6.7043   -0.6688    0.3142 C.2     1  UNL1        0.0000
      4 C           5.2582   -0.7503    0.2796 C.ar    1  UNL1        0.0000
      5 C           4.4198   -1.7769    0.6021 C.ar    1  UNL1        0.0000
      6 N           3.0738   -1.6700    0.5059 N.ar    1  UNL1        0.0000
      7 C           2.4669   -0.5307    0.0801 C.ar    1  UNL1        0.0000
      8 C           3.3030    0.5904   -0.2747 C.ar    1  UNL1        0.0000
      9 C           4.7064    0.4473   -0.1632 C.ar    1  UNL1        0.0000
     10 C           2.5688    1.7382   -0.7070 C.ar    1  UNL1        0.0000
     11 C           3.1322    2.9321   -1.0987 C.ar    1  UNL1        0.0000
     12 S           1.9601    4.0964   -1.5540 S.2     1  UNL1        0.0000
     13 C           0.6771    3.0108   -1.2308 C.ar    1  UNL1        0.0000
     14 C           1.1275    1.7862   -0.7861 C.ar    1  UNL1        0.0000
     15 C           0.2952    0.7066   -0.4463 C.ar    1  UNL1        0.0000
     16 C          -1.1712    0.7943   -0.5386 C.ar    1  UNL1        0.0000
     17 C          -1.9746   -0.2327   -0.2039 C.ar    1  UNL1        0.0000
     18 C          -3.4135   -0.0162   -0.3510 C.ar    1  UNL1        0.0000
     19 C          -4.1485   -0.1876   -1.5501 C.ar    1  UNL1        0.0000
     20 C          -5.5681    0.0291   -1.6590 C.ar    1  UNL1        0.0000
     21 C          -6.3971    0.4358   -0.5863 C.ar    1  UNL1        0.0000
     22 C          -5.6527    0.5927    0.5760 C.ar    1  UNL1        0.0000
     23 C          -6.1375    0.9731    1.8004 C.ar    1  UNL1        0.0000
     24 N          -5.0628    0.9980    2.6658 N.ar    1  UNL1        0.0000
     25 C          -3.9060    0.6406    2.0046 C.ar    1  UNL1        0.0000
     26 C          -4.2466    0.3820    0.6992 C.ar    1  UNL1        0.0000
     27 C          -1.3670   -1.4767    0.2458 C.ar    1  UNL1        0.0000
     28 C          -2.0746   -2.5728    0.5926 C.2     1  UNL1        0.0000
     29 SI         -0.9748   -3.9675    1.1168 Si      1  UNL1        0.0000
     30 C           0.4771   -2.8510    0.7906 C.2     1  UNL1        0.0000
     31 C           0.1137   -1.6236    0.3557 C.ar    1  UNL1        0.0000
     32 C           1.0175   -0.4633   -0.0077 C.ar    1  UNL1        0.0000
     33 H           5.8636    1.6820   -1.5026 H       1  UNL1        0.0000
     34 H           5.7892    2.2780    0.2026 H       1  UNL1        0.0000
     35 H           8.0525    0.9260   -0.1845 H       1  UNL1        0.0000
     36 H           7.3655   -1.4630    0.6206 H       1  UNL1        0.0000
     37 H           4.7879   -2.7345    0.9531 H       1  UNL1        0.0000
     38 H           4.1655    3.2300   -1.1582 H       1  UNL1        0.0000
     39 H          -0.3323    3.3588   -1.3942 H       1  UNL1        0.0000
     40 H          -1.6173    1.7211   -0.8802 H       1  UNL1        0.0000
     41 H          -3.6133   -0.5066   -2.4451 H       1  UNL1        0.0000
     42 H          -6.0314   -0.1341   -2.6327 H       1  UNL1        0.0000
     43 H          -7.4615    0.5938   -0.6805 H       1  UNL1        0.0000
     44 H          -7.1304    1.2260    2.1458 H       1  UNL1        0.0000
     45 H          -5.1144    1.2420    3.6461 H       1  UNL1        0.0000
     46 H          -2.9601    0.6025    2.5284 H       1  UNL1        0.0000
     47 H          -3.1480   -2.6820    0.5896 H       1  UNL1        0.0000
     48 H          -1.1265   -4.3067    2.5532 H       1  UNL1        0.0000
     49 H          -1.0322   -5.1219    0.1868 H       1  UNL1        0.0000
     50 H           1.4667   -3.2366    0.9608 H       1  UNL1        0.0000
@<TRIPOS>BOND
     1     1     2    1
     2     2     3    2
     3     3     4    1
     4     4     5   ar
     5     5     6   ar
     6     6     7   ar
     7     7     8   ar
     8     8     9   ar
     9     8    10   ar
    10    10    11   ar
    11    11    12   ar
    12    12    13   ar
    13    13    14   ar
    14    14    15   ar
    15    15    16   ar
    16    16    17   ar
    17    17    18    1
    18    18    19   ar
    19    19    20   ar
    20    20    21   ar
    21    21    22   ar
    22    22    23   ar
    23    23    24   ar
    24    24    25   ar
    25    25    26   ar
    26    17    27   ar
    27    27    28    2
    28    28    29    1
    29    29    30    1
    30    30    31    2
    31    31    32   ar
    32     9     1    1
    33    14    10   ar
    34    32    15   ar
    35     9     4   ar
    36    26    18   ar
    37    31    27   ar
    38    32     7   ar
    39    26    22   ar
    40     1    33    1
    41     1    34    1
    42     2    35    1
    43     3    36    1
    44     5    37    1
    45    11    38    1
    46    13    39    1
    47    16    40    1
    48    19    41    1
    49    20    42    1
    50    21    43    1
    51    23    44    1
    52    24    45    1
    53    25    46    1
    54    28    47    1
    55    29    48    1
    56    29    49    1
    57    30    50    1
