@<TRIPOS>MOLECULE
*****
 43 49 0 0 0
SMALL
GASTEIGER

@<TRIPOS>ATOM
      1 C          -5.6603    1.1057    1.1339 C.3     1  UNL1        0.0000
      2 C          -6.8643    0.2070    0.9821 C.2     1  UNL1        0.0000
      3 C          -6.5601   -0.9715    0.4166 C.2     1  UNL1        0.0000
      4 C          -5.1366   -0.9628    0.1433 C.ar    1  UNL1        0.0000
      5 C          -4.3197   -1.9032   -0.4196 C.ar    1  UNL1        0.0000
      6 N          -2.9922   -1.6954   -0.5885 N.ar    1  UNL1        0.0000
      7 C          -2.4221   -0.5201   -0.1955 C.ar    1  UNL1        0.0000
      8 C          -3.2128    0.4960    0.3957 C.ar    1  UNL1        0.0000
      9 C          -2.6409    1.7094    0.8063 C.ar    1  UNL1        0.0000
     10 C          -1.2789    1.9484    0.6445 C.ar    1  UNL1        0.0000
     11 C          -0.4419    0.9937    0.0704 C.ar    1  UNL1        0.0000
     12 C           0.9500    1.3137   -0.0602 C.ar    1  UNL1        0.0000
     13 C           1.9245    0.4597   -0.6169 C.ar    1  UNL1        0.0000
     14 C           3.3313    0.8040   -0.7114 C.ar    1  UNL1        0.0000
     15 S           3.8296    2.0229   -1.8379 S.2     1  UNL1        0.0000
     16 C           5.4960    1.8762   -1.4110 C.ar    1  UNL1        0.0000
     17 C           5.6320    0.9330   -0.4400 C.ar    1  UNL1        0.0000
     18 SI          7.0537    0.1946    0.5485 Si      1  UNL1        0.0000
     19 C           5.7757   -0.9091    1.4480 C.2     1  UNL1        0.0000
     20 C           4.5218   -0.6782    1.0002 C.2     1  UNL1        0.0000
     21 C           4.4199    0.3168   -0.0277 C.ar    1  UNL1        0.0000
     22 C           1.3855   -0.7603   -1.0426 C.ar    1  UNL1        0.0000
     23 C           2.1278   -1.7541   -1.6410 C.ar    1  UNL1        0.0000
     24 S           1.1683   -3.1150   -2.0373 S.2     1  UNL1        0.0000
     25 C          -0.2526   -2.3724   -1.4260 C.ar    1  UNL1        0.0000
     26 C          -0.0190   -1.1115   -0.9222 C.ar    1  UNL1        0.0000
     27 C          -1.0256   -0.2548   -0.3542 C.ar    1  UNL1        0.0000
     28 C          -4.5770    0.2440    0.5530 C.ar    1  UNL1        0.0000
     29 H          -5.7907    2.0270    0.5589 H       1  UNL1        0.0000
     30 H          -5.4736    1.3268    2.1888 H       1  UNL1        0.0000
     31 H          -7.8568    0.4958    1.2991 H       1  UNL1        0.0000
     32 H          -7.2292   -1.7874    0.1960 H       1  UNL1        0.0000
     33 H          -4.6916   -2.8631   -0.7598 H       1  UNL1        0.0000
     34 H          -3.2516    2.4872    1.2593 H       1  UNL1        0.0000
     35 H          -0.8812    2.9057    0.9786 H       1  UNL1        0.0000
     36 H           1.2940    2.2859    0.3005 H       1  UNL1        0.0000
     37 H           6.2451    2.4870   -1.8962 H       1  UNL1        0.0000
     38 H           7.6921    1.1462    1.4916 H       1  UNL1        0.0000
     39 H           7.9900   -0.6256   -0.2595 H       1  UNL1        0.0000
     40 H           6.0845   -1.6076    2.2089 H       1  UNL1        0.0000
     41 H           3.6514   -1.2007    1.3819 H       1  UNL1        0.0000
     42 H           3.1838   -1.7681   -1.8740 H       1  UNL1        0.0000
     43 H          -1.1780   -2.9258   -1.4848 H       1  UNL1        0.0000
@<TRIPOS>BOND
     1     1     2    1
     2     2     3    2
     3     3     4    1
     4     4     5   ar
     5     5     6   ar
     6     6     7   ar
     7     7     8   ar
     8     8     9   ar
     9     9    10   ar
    10    10    11   ar
    11    11    12   ar
    12    12    13   ar
    13    13    14    1
    14    14    15   ar
    15    15    16   ar
    16    16    17   ar
    17    17    18    1
    18    18    19    1
    19    19    20    2
    20    20    21    1
    21    13    22   ar
    22    22    23   ar
    23    23    24   ar
    24    24    25   ar
    25    25    26   ar
    26    26    27   ar
    27     8    28   ar
    28    28     1    1
    29    28     4   ar
    30    27     7   ar
    31    27    11   ar
    32    21    14   ar
    33    26    22   ar
    34    21    17   ar
    35     1    29    1
    36     1    30    1
    37     2    31    1
    38     3    32    1
    39     5    33    1
    40     9    34    1
    41    10    35    1
    42    12    36    1
    43    16    37    1
    44    18    38    1
    45    18    39    1
    46    19    40    1
    47    20    41    1
    48    23    42    1
    49    25    43    1
