@<TRIPOS>MOLECULE
*****
 35 39 0 0 0
SMALL
GASTEIGER

@<TRIPOS>ATOM
      1 C          -4.9247   -1.3056   -0.2248 C.3     1  UNL1       -0.0079
      2 C          -6.1373   -0.4471    0.0459 C.2     1  UNL1       -0.0791
      3 C          -5.8155    0.8080    0.3973 C.2     1  UNL1       -0.0565
      4 C          -4.3687    0.8998    0.3929 C.ar    1  UNL1       -0.0031
      5 C          -3.5252    1.9431    0.6728 C.ar    1  UNL1        0.0357
      6 N          -2.1759    1.8195    0.6091 N.ar    1  UNL1       -0.2536
      7 C          -1.6262    0.6222    0.2558 C.ar    1  UNL1        0.0833
      8 C          -2.4334   -0.4901   -0.0447 C.ar    1  UNL1        0.0232
      9 C          -1.8095   -1.6834   -0.3984 C.ar    1  UNL1        0.0377
     10 N          -0.4728   -1.8437   -0.4722 N.ar    1  UNL1       -0.2541
     11 C           0.3029   -0.7873   -0.1870 C.ar    1  UNL1        0.0766
     12 C           1.6783   -0.9271   -0.2557 C.ar    1  UNL1       -0.0081
     13 C           2.5192    0.1459    0.0329 C.ar    1  UNL1        0.0912
     14 N           2.0135    1.3547    0.3884 N.ar    1  UNL1       -0.2527
     15 C           0.6675    1.4793    0.4522 C.ar    1  UNL1        0.0395
     16 C          -0.2354    0.4542    0.1786 C.ar    1  UNL1        0.0444
     17 C           3.9967    0.0313   -0.0307 C.ar    1  UNL1        0.0892
     18 C           4.8399    1.1069    0.2587 C.ar    1  UNL1       -0.0342
     19 C           6.2217    0.9402    0.1824 C.ar    1  UNL1       -0.0583
     20 C           6.7374   -0.2953   -0.1809 C.ar    1  UNL1       -0.0436
     21 C           5.8457   -1.3164   -0.4537 C.ar    1  UNL1        0.0283
     22 N           4.5021   -1.1827   -0.3876 N.ar    1  UNL1       -0.2534
     23 C          -3.8179   -0.3270    0.0311 C.ar    1  UNL1       -0.0244
     24 H          -4.8829   -2.1486    0.4708 H       1  UNL1        0.0356
     25 H          -4.9195   -1.6542   -1.2615 H       1  UNL1        0.0356
     26 H          -7.1496   -0.8178   -0.0386 H       1  UNL1        0.0575
     27 H          -6.4878    1.6147    0.6417 H       1  UNL1        0.0621
     28 H          -3.8940    2.9218    0.9600 H       1  UNL1        0.0836
     29 H          -2.3803   -2.5757   -0.6411 H       1  UNL1        0.0836
     30 H           2.0966   -1.8890   -0.5390 H       1  UNL1        0.0661
     31 H           0.3198    2.4691    0.7420 H       1  UNL1        0.0837
     32 H           4.4267    2.0707    0.5424 H       1  UNL1        0.0639
     33 H           6.8845    1.7711    0.4058 H       1  UNL1        0.0619
     34 H           7.8067   -0.4589   -0.2498 H       1  UNL1        0.0633
     35 H           6.1975   -2.3028   -0.7426 H       1  UNL1        0.0830
@<TRIPOS>BOND
     1     1     2    1
     2     2     3    2
     3     3     4    1
     4     4     5   ar
     5     5     6   ar
     6     6     7   ar
     7     7     8   ar
     8     8     9   ar
     9     9    10   ar
    10    10    11   ar
    11    11    12   ar
    12    12    13   ar
    13    13    14   ar
    14    14    15   ar
    15    15    16   ar
    16    13    17    1
    17    17    18   ar
    18    18    19   ar
    19    19    20   ar
    20    20    21   ar
    21    21    22   ar
    22     8    23   ar
    23    23     1    1
    24    23     4   ar
    25    16     7   ar
    26    22    17   ar
    27    16    11   ar
    28     1    24    1
    29     1    25    1
    30     2    26    1
    31     3    27    1
    32     5    28    1
    33     9    29    1
    34    12    30    1
    35    15    31    1
    36    18    32    1
    37    19    33    1
    38    20    34    1
    39    21    35    1
