@<TRIPOS>MOLECULE
*****
 39 44 0 0 0
SMALL
GASTEIGER

@<TRIPOS>ATOM
      1 C          -4.5132   -0.0016   -0.0800 C.3     1  UNL1       -0.0079
      2 C          -5.5167    1.0930   -0.3357 C.2     1  UNL1       -0.0791
      3 C          -4.9312    2.2701   -0.5842 C.2     1  UNL1       -0.0565
      4 C          -3.5008    2.0538   -0.5141 C.ar    1  UNL1       -0.0031
      5 C          -2.4853    2.9405   -0.6921 C.ar    1  UNL1        0.0357
      6 N          -1.2036    2.5577   -0.5879 N.ar    1  UNL1       -0.2522
      7 C          -0.8711    1.2662   -0.2998 C.ar    1  UNL1        0.0977
      8 C           0.4913    0.9713   -0.2136 C.ar    1  UNL1        0.0974
      9 N           1.3895    1.9683   -0.4178 N.ar    1  UNL1       -0.2521
     10 C           2.7170    1.7306   -0.3448 C.ar    1  UNL1        0.0380
     11 C           3.2661    0.4992   -0.0665 C.ar    1  UNL1        0.0258
     12 C           2.3417   -0.5290    0.1441 C.ar    1  UNL1       -0.0408
     13 C           0.9275   -0.3365    0.0796 C.ar    1  UNL1        0.0108
     14 C          -0.0269   -1.3821    0.2936 C.ar    1  UNL1       -0.0080
     15 C           0.3703   -2.7173    0.5922 C.ar    1  UNL1       -0.0534
     16 C          -0.5351   -3.7522    0.8047 C.ar    1  UNL1       -0.0611
     17 C          -1.8810   -3.4849    0.7249 C.ar    1  UNL1       -0.0611
     18 C          -2.3034   -2.1870    0.4339 C.ar    1  UNL1       -0.0534
     19 C          -1.4167   -1.0964    0.2090 C.ar    1  UNL1       -0.0077
     20 C          -1.8510    0.2541   -0.0937 C.ar    1  UNL1        0.0142
     21 C          -3.1951    0.7179   -0.2166 C.ar    1  UNL1       -0.0252
     22 C           4.7287    0.3504   -0.0108 C.ar    1  UNL1        0.1097
     23 N           5.5743    1.3448   -0.2144 N.ar    1  UNL1       -0.2473
     24 C           6.8780    0.9074   -0.0984 C.ar    1  UNL1        0.0354
     25 C           7.0293   -0.4275    0.1953 C.ar    1  UNL1       -0.0042
     26 S           5.4910   -1.1624    0.3314 S.2     1  UNL1       -0.0756
     27 H          -4.6260   -0.7807   -0.8395 H       1  UNL1        0.0356
     28 H          -4.6542   -0.3928    0.9318 H       1  UNL1        0.0356
     29 H          -6.5853    0.9309   -0.3173 H       1  UNL1        0.0575
     30 H          -5.4088    3.2125   -0.7983 H       1  UNL1        0.0621
     31 H          -2.6509    3.9858   -0.9237 H       1  UNL1        0.0836
     32 H           3.3389    2.6046   -0.5263 H       1  UNL1        0.0836
     33 H           2.7326   -1.5151    0.3663 H       1  UNL1        0.0631
     34 H           1.4178   -2.9938    0.6693 H       1  UNL1        0.0624
     35 H          -0.1823   -4.7548    1.0298 H       1  UNL1        0.0618
     36 H          -2.6101   -4.2744    0.8864 H       1  UNL1        0.0618
     37 H          -3.3759   -2.0648    0.3903 H       1  UNL1        0.0624
     38 H           7.6880    1.6129   -0.2395 H       1  UNL1        0.0835
     39 H           7.9429   -0.9877    0.3320 H       1  UNL1        0.0709
@<TRIPOS>BOND
     1     1     2    1
     2     2     3    2
     3     3     4    1
     4     4     5   ar
     5     5     6   ar
     6     6     7   ar
     7     7     8   ar
     8     8     9   ar
     9     9    10   ar
    10    10    11   ar
    11    11    12   ar
    12    12    13   ar
    13    13    14   ar
    14    14    15   ar
    15    15    16   ar
    16    16    17   ar
    17    17    18   ar
    18    18    19   ar
    19    19    20   ar
    20    20    21   ar
    21    11    22    1
    22    22    23   ar
    23    23    24   ar
    24    24    25   ar
    25    25    26   ar
    26    21     1    1
    27    26    22   ar
    28    21     4   ar
    29    20     7   ar
    30    13     8   ar
    31    19    14   ar
    32     1    27    1
    33     1    28    1
    34     2    29    1
    35     3    30    1
    36     5    31    1
    37    10    32    1
    38    12    33    1
    39    15    34    1
    40    16    35    1
    41    17    36    1
    42    18    37    1
    43    24    38    1
    44    25    39    1
