@<TRIPOS>MOLECULE
*****
 36 40 0 0 0
SMALL
GASTEIGER

@<TRIPOS>ATOM
      1 C          -3.9388   -0.7216   -0.2930 C.3     1  UNL1        0.0000
      2 C          -5.1697    0.1350   -0.4666 C.2     1  UNL1        0.0000
      3 C          -4.8793    1.4399   -0.5691 C.2     1  UNL1        0.0000
      4 C          -3.4376    1.5691   -0.4738 C.ar    1  UNL1        0.0000
      5 C          -2.6473    2.6936   -0.5217 C.ar    1  UNL1        0.0000
      6 N          -1.3029    2.6322   -0.4160 N.ar    1  UNL1        0.0000
      7 C          -0.7433    1.3962   -0.2582 C.ar    1  UNL1        0.0000
      8 C           0.7283    1.4234   -0.1567 C.ar    1  UNL1        0.0000
      9 C           1.4732    0.3108    0.0052 C.ar    1  UNL1        0.0000
     10 C           2.9330    0.4858    0.0816 C.ar    1  UNL1        0.0000
     11 C           3.5504    0.9426    1.2483 C.ar    1  UNL1        0.0000
     12 C           4.9356    1.0841    1.2841 C.ar    1  UNL1        0.0000
     13 C           5.6600    0.7590    0.1481 C.ar    1  UNL1        0.0000
     14 N           5.1018    0.3105   -0.9970 N.ar    1  UNL1        0.0000
     15 C           3.7523    0.1866   -1.0039 C.ar    1  UNL1        0.0000
     16 C           0.7908   -0.9802    0.0842 C.ar    1  UNL1        0.0000
     17 C           1.4108   -2.1662    0.2559 C.2     1  UNL1        0.0000
     18 SI          0.2010   -3.5783    0.3060 Si      1  UNL1        0.0000
     19 C          -1.1724   -2.3241    0.0737 C.2     1  UNL1        0.0000
     20 C          -0.6918   -1.0661   -0.0175 C.ar    1  UNL1        0.0000
     21 C          -1.4684    0.1823   -0.1959 C.ar    1  UNL1        0.0000
     22 C          -2.8479    0.3063   -0.3098 C.ar    1  UNL1        0.0000
     23 H          -3.8464   -1.4208   -1.1290 H       1  UNL1        0.0000
     24 H          -3.9805   -1.2492    0.6641 H       1  UNL1        0.0000
     25 H          -6.1697   -0.2745   -0.5026 H       1  UNL1        0.0000
     26 H          -5.5686    2.2586   -0.6988 H       1  UNL1        0.0000
     27 H          -3.0651    3.6863   -0.6473 H       1  UNL1        0.0000
     28 H           1.1775    2.4099   -0.2281 H       1  UNL1        0.0000
     29 H           2.9586    1.1858    2.1271 H       1  UNL1        0.0000
     30 H           5.4376    1.4386    2.1772 H       1  UNL1        0.0000
     31 H           6.7421    0.8535    0.1289 H       1  UNL1        0.0000
     32 H           3.3335   -0.1742   -1.9398 H       1  UNL1        0.0000
     33 H           2.4700   -2.3441    0.3601 H       1  UNL1        0.0000
     34 H           0.1354   -4.2340    1.6339 H       1  UNL1        0.0000
     35 H           0.3263   -4.4867   -0.8585 H       1  UNL1        0.0000
     36 H          -2.1890   -2.6701    0.0344 H       1  UNL1        0.0000
@<TRIPOS>BOND
     1     1     2    1
     2     2     3    2
     3     3     4    1
     4     4     5   ar
     5     5     6   ar
     6     6     7   ar
     7     7     8   ar
     8     8     9   ar
     9     9    10    1
    10    10    11   ar
    11    11    12   ar
    12    12    13   ar
    13    13    14   ar
    14    14    15   ar
    15     9    16   ar
    16    16    17    2
    17    17    18    1
    18    18    19    1
    19    19    20    2
    20    20    21   ar
    21    21    22   ar
    22    22     1    1
    23    22     4   ar
    24    21     7   ar
    25    15    10   ar
    26    20    16   ar
    27     1    23    1
    28     1    24    1
    29     2    25    1
    30     3    26    1
    31     5    27    1
    32     8    28    1
    33    11    29    1
    34    12    30    1
    35    13    31    1
    36    15    32    1
    37    17    33    1
    38    18    34    1
    39    18    35    1
    40    19    36    1
