@<TRIPOS>MOLECULE
*****
 41 47 0 0 0
SMALL
GASTEIGER

@<TRIPOS>ATOM
      1 C           4.4117   -0.5124   -0.9492 C.3     1  UNL1        0.0000
      2 C           5.9088   -0.2766   -1.1833 C.2     1  UNL1        0.0000
      3 C           6.3516    0.8017   -0.4966 C.2     1  UNL1        0.0000
      4 C           5.2720    1.3689    0.2235 C.ar    1  UNL1        0.0000
      5 C           5.1018    2.4301    1.0584 C.ar    1  UNL1        0.0000
      6 S           3.4478    2.5048    1.5580 S.2     1  UNL1        0.0000
      7 C           3.0080    1.1009    0.6448 C.ar    1  UNL1        0.0000
      8 C           4.1032    0.6124   -0.0198 C.ar    1  UNL1        0.0000
      9 C           1.6379    0.6221    0.6647 C.ar    1  UNL1        0.0000
     10 C           0.5795    1.3229    0.0363 C.ar    1  UNL1        0.0000
     11 C          -0.7350    0.7994    0.0542 C.ar    1  UNL1        0.0000
     12 N          -1.9241    1.2943   -0.4850 N.ar    1  UNL1        0.0000
     13 C          -2.9060    0.4091   -0.1911 C.ar    1  UNL1        0.0000
     14 C          -4.2697    0.3280   -0.4373 C.2     1  UNL1        0.0000
     15 C          -4.6806   -0.8339    0.1406 C.2     1  UNL1        0.0000
     16 C          -3.5400   -1.6000    0.8248 C.3     1  UNL1        0.0000
     17 C          -2.4227   -0.6601    0.5255 C.ar    1  UNL1        0.0000
     18 C          -1.0760   -0.4077    0.6715 C.ar    1  UNL1        0.0000
     19 C          -0.0447   -1.1432    1.3186 C.ar    1  UNL1        0.0000
     20 C          -0.2029   -2.3293    1.9712 C.ar    1  UNL1        0.0000
     21 S           1.3240   -2.8186    2.5992 S.2     1  UNL1        0.0000
     22 C           2.1195   -1.4166    1.9724 C.ar    1  UNL1        0.0000
     23 C           1.2601   -0.5870    1.2802 C.ar    1  UNL1        0.0000
     24 C          -6.0864   -1.1298    0.0097 C.2     1  UNL1        0.0000
     25 C          -6.7651   -0.1850   -0.6765 C.2     1  UNL1        0.0000
     26 SI         -5.6021    1.2379   -1.2427 Si      1  UNL1        0.0000
     27 H           4.2423   -1.4872   -0.4842 H       1  UNL1        0.0000
     28 H           3.8543   -0.4312   -1.8864 H       1  UNL1        0.0000
     29 H           6.5162   -0.9032   -1.8193 H       1  UNL1        0.0000
     30 H           7.3645    1.1786   -0.4921 H       1  UNL1        0.0000
     31 H           5.8200    3.1595    1.4041 H       1  UNL1        0.0000
     32 H           0.7818    2.2649   -0.4681 H       1  UNL1        0.0000
     33 H          -2.0135    2.1610   -0.9968 H       1  UNL1        0.0000
     34 H          -3.7153   -1.6971    1.8996 H       1  UNL1        0.0000
     35 H          -3.3853   -2.5787    0.3626 H       1  UNL1        0.0000
     36 H          -1.0877   -2.9295    2.1245 H       1  UNL1        0.0000
     37 H           3.1774   -1.2945    2.1607 H       1  UNL1        0.0000
     38 H          -6.5309   -2.0233    0.4270 H       1  UNL1        0.0000
     39 H          -7.8168   -0.1640   -0.9128 H       1  UNL1        0.0000
     40 H          -5.9673    2.5185   -0.5863 H       1  UNL1        0.0000
     41 H          -5.5101    1.2938   -2.7236 H       1  UNL1        0.0000
@<TRIPOS>BOND
     1     1     2    1
     2     2     3    2
     3     3     4    1
     4     4     5   ar
     5     5     6   ar
     6     6     7   ar
     7     7     8   ar
     8     7     9    1
     9     9    10   ar
    10    10    11   ar
    11    11    12   ar
    12    12    13   ar
    13    13    14    1
    14    14    15    2
    15    15    16    1
    16    16    17    1
    17    17    18   ar
    18    18    19   ar
    19    19    20   ar
    20    20    21   ar
    21    21    22   ar
    22    22    23   ar
    23    15    24    1
    24    24    25    2
    25    25    26    1
    26     8     1    1
    27    23     9   ar
    28     8     4   ar
    29    18    11   ar
    30    23    19   ar
    31    17    13   ar
    32    26    14    1
    33     1    27    1
    34     1    28    1
    35     2    29    1
    36     3    30    1
    37     5    31    1
    38    10    32    1
    39    12    33    1
    40    16    34    1
    41    16    35    1
    42    20    36    1
    43    22    37    1
    44    24    38    1
    45    25    39    1
    46    26    40    1
    47    26    41    1
