@<TRIPOS>MOLECULE
*****
 39 45 0 0 0
SMALL
GASTEIGER

@<TRIPOS>ATOM
      1 C          -4.9259   -1.5327   -0.2156 C.3     1  UNL1        0.0000
      2 C          -6.4407   -1.3295   -0.1155 C.2     1  UNL1        0.0000
      3 C          -6.7433   -0.0574    0.2281 C.2     1  UNL1        0.0000
      4 C          -5.5436    0.6786    0.3844 C.ar    1  UNL1        0.0000
      5 C          -5.2266    1.9599    0.7113 C.ar    1  UNL1        0.0000
      6 S          -3.5108    2.1393    0.7054 S.2     1  UNL1        0.0000
      7 C          -3.2309    0.4822    0.2614 C.ar    1  UNL1        0.0000
      8 C          -4.4355   -0.1654    0.1285 C.ar    1  UNL1        0.0000
      9 C          -1.8903   -0.0221    0.0875 C.ar    1  UNL1        0.0000
     10 C          -1.5026   -1.3103   -0.2629 C.ar    1  UNL1        0.0000
     11 C          -0.0957   -1.2529   -0.2913 C.ar    1  UNL1        0.0000
     12 N           1.0359   -2.0019   -0.5230 N.ar    1  UNL1        0.0000
     13 C           2.1144   -1.1725   -0.3384 C.ar    1  UNL1        0.0000
     14 C           3.5099   -1.4802   -0.4624 C.ar    1  UNL1        0.0000
     15 S           4.1712   -2.9842   -0.8779 S.2     1  UNL1        0.0000
     16 C           5.7688   -2.3658   -0.7648 C.ar    1  UNL1        0.0000
     17 C           5.7923   -1.0300   -0.4146 C.ar    1  UNL1        0.0000
     18 C           4.4791   -0.5092   -0.2372 C.ar    1  UNL1        0.0000
     19 C           4.0744    0.8335    0.1281 C.ar    1  UNL1        0.0000
     20 C           4.8845    1.8820    0.3785 C.2     1  UNL1        0.0000
     21 SI          3.8920    3.4103    0.8107 Si      1  UNL1        0.0000
     22 C           2.3300    2.4197    0.5987 C.2     1  UNL1        0.0000
     23 C           2.6099    1.1485    0.2561 C.ar    1  UNL1        0.0000
     24 C           1.6833    0.0990    0.0090 C.ar    1  UNL1        0.0000
     25 C           0.2913    0.0024    0.0266 C.ar    1  UNL1        0.0000
     26 O          -0.7844    0.7890    0.2665 O.2     1  UNL1        0.0000
     27 H          -4.5893   -2.2806    0.5077 H       1  UNL1        0.0000
     28 H          -4.6430   -1.8238   -1.2310 H       1  UNL1        0.0000
     29 H          -7.1608   -2.1129   -0.2991 H       1  UNL1        0.0000
     30 H          -7.7376    0.3439    0.3642 H       1  UNL1        0.0000
     31 H          -5.8726    2.7925    0.9499 H       1  UNL1        0.0000
     32 H          -2.1384   -2.1573   -0.4658 H       1  UNL1        0.0000
     33 H           1.0415   -2.9803   -0.7802 H       1  UNL1        0.0000
     34 H           6.6126   -3.0128   -0.9609 H       1  UNL1        0.0000
     35 H           6.7091   -0.4670   -0.2950 H       1  UNL1        0.0000
     36 H           5.9614    1.9039    0.3510 H       1  UNL1        0.0000
     37 H           4.0424    4.4751   -0.2101 H       1  UNL1        0.0000
     38 H           4.1171    3.8386    2.2122 H       1  UNL1        0.0000
     39 H           1.3508    2.8505    0.7421 H       1  UNL1        0.0000
@<TRIPOS>BOND
     1     1     2    1
     2     2     3    2
     3     3     4    1
     4     4     5   ar
     5     5     6   ar
     6     6     7   ar
     7     7     8   ar
     8     7     9    1
     9     9    10   ar
    10    10    11   ar
    11    11    12   ar
    12    12    13   ar
    13    13    14   ar
    14    14    15   ar
    15    15    16   ar
    16    16    17   ar
    17    17    18   ar
    18    18    19   ar
    19    19    20    2
    20    20    21    1
    21    21    22    1
    22    22    23    2
    23    23    24   ar
    24    24    25   ar
    25    25    26   ar
    26     8     1    1
    27    26     9   ar
    28     8     4   ar
    29    25    11   ar
    30    24    13   ar
    31    18    14   ar
    32    23    19   ar
    33     1    27    1
    34     1    28    1
    35     2    29    1
    36     3    30    1
    37     5    31    1
    38    10    32    1
    39    12    33    1
    40    16    34    1
    41    17    35    1
    42    20    36    1
    43    21    37    1
    44    21    38    1
    45    22    39    1
