@<TRIPOS>MOLECULE
*****
 46 52 0 0 0
SMALL
GASTEIGER

@<TRIPOS>ATOM
      1 SI         -0.5896    3.9856    0.8557 Si      1  UNL1        0.0000
      2 C          -1.7972    2.6616    0.3746 C.2     1  UNL1        0.0000
      3 C          -1.2053    1.4596    0.2375 C.ar    1  UNL1        0.0000
      4 C          -1.8134    0.2208   -0.1465 C.ar    1  UNL1        0.0000
      5 C          -0.9798   -0.8223   -0.5495 C.ar    1  UNL1        0.0000
      6 N          -1.7742   -1.8434   -1.0183 N.ar    1  UNL1        0.0000
      7 C          -3.1083   -1.5516   -0.8277 C.ar    1  UNL1        0.0000
      8 C          -4.2655   -2.3203   -1.1259 C.ar    1  UNL1        0.0000
      9 C          -5.5502   -1.8574   -0.7846 C.ar    1  UNL1        0.0000
     10 C          -5.5108   -0.6417   -0.1190 C.ar    1  UNL1        0.0000
     11 C          -6.6159   -0.0096    0.4007 C.ar    1  UNL1        0.0000
     12 N          -6.1734    1.1261    1.0520 N.ar    1  UNL1        0.0000
     13 C          -4.7980    1.2259    0.9613 C.ar    1  UNL1        0.0000
     14 C          -4.4020    0.1648    0.2022 C.ar    1  UNL1        0.0000
     15 C          -3.1143   -0.2974   -0.2217 C.ar    1  UNL1        0.0000
     16 C           0.4881   -0.8332   -0.4710 C.ar    1  UNL1        0.0000
     17 C           1.2500   -1.9493   -0.8269 C.ar    1  UNL1        0.0000
     18 C           2.6415   -1.9259   -0.6895 C.ar    1  UNL1        0.0000
     19 C           3.3162   -0.7972   -0.1946 C.ar    1  UNL1        0.0000
     20 C           2.5345    0.3165    0.1705 C.ar    1  UNL1        0.0000
     21 C           1.1341    0.3222    0.0326 C.ar    1  UNL1        0.0000
     22 C           0.2884    1.5063    0.3701 C.ar    1  UNL1        0.0000
     23 C           0.7733    2.7217    0.7093 C.2     1  UNL1        0.0000
     24 C           4.7891   -0.8015   -0.0620 C.ar    1  UNL1        0.0000
     25 C           5.5703    0.3437   -0.2263 C.ar    1  UNL1        0.0000
     26 C           6.9543    0.2554   -0.0841 C.ar    1  UNL1        0.0000
     27 C           7.5306   -0.9706    0.2159 C.ar    1  UNL1        0.0000
     28 C           6.6949   -2.0631    0.3555 C.ar    1  UNL1        0.0000
     29 N           5.3517   -2.0059    0.2196 N.ar    1  UNL1        0.0000
     30 H          -0.7768    4.4576    2.2491 H       1  UNL1        0.0000
     31 H          -0.4722    5.0583   -0.1615 H       1  UNL1        0.0000
     32 H          -2.8287    2.9054    0.1998 H       1  UNL1        0.0000
     33 H          -1.4385   -2.7124   -1.4043 H       1  UNL1        0.0000
     34 H          -4.1629   -3.2871   -1.6132 H       1  UNL1        0.0000
     35 H          -6.4485   -2.4240   -0.9874 H       1  UNL1        0.0000
     36 H          -7.6669   -0.2638    0.3965 H       1  UNL1        0.0000
     37 H          -6.7669    1.7701    1.5578 H       1  UNL1        0.0000
     38 H          -4.2776    2.0150    1.4789 H       1  UNL1        0.0000
     39 H           0.7885   -2.8563   -1.2028 H       1  UNL1        0.0000
     40 H           3.2108   -2.8115   -0.9706 H       1  UNL1        0.0000
     41 H           3.0288    1.1881    0.5886 H       1  UNL1        0.0000
     42 H           1.7990    3.0255    0.8294 H       1  UNL1        0.0000
     43 H           5.1214    1.2981   -0.4802 H       1  UNL1        0.0000
     44 H           7.5748    1.1379   -0.2112 H       1  UNL1        0.0000
     45 H           8.6031   -1.0739    0.3339 H       1  UNL1        0.0000
     46 H           7.0933   -3.0466    0.5874 H       1  UNL1        0.0000
@<TRIPOS>BOND
     1     1     2    1
     2     2     3    2
     3     3     4   ar
     4     4     5   ar
     5     5     6   ar
     6     6     7   ar
     7     7     8   ar
     8     8     9   ar
     9     9    10   ar
    10    10    11   ar
    11    11    12   ar
    12    12    13   ar
    13    13    14   ar
    14    14    15   ar
    15     5    16   ar
    16    16    17   ar
    17    17    18   ar
    18    18    19   ar
    19    19    20   ar
    20    20    21   ar
    21    21    22   ar
    22    22    23    2
    23    19    24    1
    24    24    25   ar
    25    25    26   ar
    26    26    27   ar
    27    27    28   ar
    28    28    29   ar
    29    23     1    1
    30    29    24   ar
    31    22     3   ar
    32    15     4   ar
    33    21    16   ar
    34    15     7   ar
    35    14    10   ar
    36     1    30    1
    37     1    31    1
    38     2    32    1
    39     6    33    1
    40     8    34    1
    41     9    35    1
    42    11    36    1
    43    12    37    1
    44    13    38    1
    45    17    39    1
    46    18    40    1
    47    20    41    1
    48    23    42    1
    49    25    43    1
    50    26    44    1
    51    27    45    1
    52    28    46    1
