@<TRIPOS>MOLECULE
*****
 34 39 0 0 0
SMALL
GASTEIGER

@<TRIPOS>ATOM
      1 C          -4.2858   -0.2349    0.7854 C.3     1  UNL1       -0.0074
      2 C          -5.7200   -0.4340    0.2862 C.2     1  UNL1       -0.0791
      3 C          -5.7490   -0.6549   -1.0473 C.2     1  UNL1       -0.0574
      4 C          -4.4255   -0.6290   -1.5505 C.ar    1  UNL1       -0.0141
      5 C          -3.8488   -0.7820   -2.7723 C.ar    1  UNL1       -0.0162
      6 S          -2.1387   -0.6166   -2.6174 S.2     1  UNL1       -0.0927
      7 C          -2.2120   -0.3418   -0.9027 C.ar    1  UNL1        0.0585
      8 C          -3.5216   -0.3811   -0.4886 C.ar    1  UNL1       -0.0188
      9 C          -1.0099   -0.1180   -0.1365 C.ar    1  UNL1        0.1446
     10 C          -0.9008    0.1134    1.2311 C.ar    1  UNL1        0.0088
     11 C           0.4834    0.2628    1.4492 C.ar    1  UNL1        0.0867
     12 N           1.4356    0.5006    2.4292 N.ar    1  UNL1       -0.3515
     13 C           2.6923    0.5076    1.8367 C.ar    1  UNL1        0.0512
     14 C           4.0046    0.6982    2.3447 C.ar    1  UNL1       -0.0370
     15 C           5.1293    0.6490    1.4729 C.ar    1  UNL1       -0.0490
     16 C           4.7919    0.4045    0.1391 C.ar    1  UNL1        0.0207
     17 C           5.6491    0.3013   -0.9297 C.ar    1  UNL1        0.0994
     18 O           4.9397    0.0550   -2.0858 O.2     1  UNL1       -0.4698
     19 C           3.6045   -0.0009   -1.7541 C.ar    1  UNL1        0.1001
     20 C           3.5197    0.2093   -0.4175 C.ar    1  UNL1        0.0325
     21 C           2.4621    0.2707    0.4954 C.ar    1  UNL1        0.0533
     22 C           1.1173    0.1223    0.2634 C.ar    1  UNL1        0.1615
     23 O           0.2379   -0.1125   -0.7350 O.2     1  UNL1       -0.4521
     24 H          -4.1649    0.7606    1.2214 H       1  UNL1        0.0356
     25 H          -4.0201   -1.0085    1.5112 H       1  UNL1        0.0356
     26 H          -6.5860   -0.3994    0.9304 H       1  UNL1        0.0575
     27 H          -6.6344   -0.8250   -1.6435 H       1  UNL1        0.0621
     28 H          -4.3046   -0.9765   -3.7326 H       1  UNL1        0.0699
     29 H          -1.6986    0.1654    1.9550 H       1  UNL1        0.0676
     30 H           1.2186    0.6416    3.4070 H       1  UNL1        0.1660
     31 H           4.1592    0.8832    3.4052 H       1  UNL1        0.0638
     32 H           6.1415    0.7903    1.8299 H       1  UNL1        0.0625
     33 H           6.7201    0.3688   -1.0563 H       1  UNL1        0.1035
     34 H           2.9140   -0.1892   -2.5634 H       1  UNL1        0.1036
@<TRIPOS>BOND
     1     1     2    1
     2     2     3    2
     3     3     4    1
     4     4     5   ar
     5     5     6   ar
     6     6     7   ar
     7     7     8   ar
     8     7     9    1
     9     9    10   ar
    10    10    11   ar
    11    11    12   ar
    12    12    13   ar
    13    13    14   ar
    14    14    15   ar
    15    15    16   ar
    16    16    17   ar
    17    17    18   ar
    18    18    19   ar
    19    19    20   ar
    20    20    21   ar
    21    21    22   ar
    22    22    23   ar
    23     8     1    1
    24    23     9   ar
    25     8     4   ar
    26    22    11   ar
    27    21    13   ar
    28    20    16   ar
    29     1    24    1
    30     1    25    1
    31     2    26    1
    32     3    27    1
    33     5    28    1
    34    10    29    1
    35    12    30    1
    36    14    31    1
    37    15    32    1
    38    17    33    1
    39    19    34    1
