@<TRIPOS>MOLECULE
*****
 46 53 0 0 0
SMALL
GASTEIGER

@<TRIPOS>ATOM
      1 C           4.3140   -1.1553   -0.7516 C.3     1  UNL1        0.0000
      2 C           5.7904   -1.5540   -0.8266 C.2     1  UNL1        0.0000
      3 C           6.5624   -0.7143   -0.1009 C.2     1  UNL1        0.0000
      4 C           5.7407    0.2733    0.4950 C.ar    1  UNL1        0.0000
      5 C           5.9466    1.3550    1.2928 C.ar    1  UNL1        0.0000
      6 S           4.4352    2.1250    1.6060 S.2     1  UNL1        0.0000
      7 C           3.5322    0.9764    0.6664 C.ar    1  UNL1        0.0000
      8 C           4.3903    0.0436    0.1355 C.ar    1  UNL1        0.0000
      9 C           2.1065    1.0779    0.5254 C.ar    1  UNL1        0.0000
     10 C           1.2621    2.1606    0.6987 C.ar    1  UNL1        0.0000
     11 C          -0.0537    1.7080    0.4618 C.ar    1  UNL1        0.0000
     12 C          -0.0026    0.3788    0.0774 C.ar    1  UNL1        0.0000
     13 N           1.3089   -0.0025    0.2126 N.ar    1  UNL1        0.0000
     14 C          -1.1767   -0.4476   -0.2091 C.ar    1  UNL1        0.0000
     15 C          -1.1802   -1.7719   -0.6881 C.ar    1  UNL1        0.0000
     16 C          -0.0919   -2.4571   -1.1890 C.ar    1  UNL1        0.0000
     17 S          -0.4744   -4.0731   -1.6761 S.2     1  UNL1        0.0000
     18 C          -2.1362   -3.8709   -1.2909 C.ar    1  UNL1        0.0000
     19 C          -2.3217   -2.6063   -0.8147 C.ar    1  UNL1        0.0000
     20 C          -3.5779   -2.0603   -0.4205 C.ar    1  UNL1        0.0000
     21 C          -4.8313   -2.6732   -0.4022 C.ar    1  UNL1        0.0000
     22 C          -5.6848   -1.7053    0.0786 C.ar    1  UNL1        0.0000
     23 N          -4.9553   -0.5625    0.3274 N.ar    1  UNL1        0.0000
     24 C          -3.6245   -0.7362   -0.0057 C.ar    1  UNL1        0.0000
     25 C          -2.4824    0.1112    0.0490 C.ar    1  UNL1        0.0000
     26 C          -2.5646    1.5768    0.3592 C.ar    1  UNL1        0.0000
     27 C          -3.6770    2.3451    0.3861 C.2     1  UNL1        0.0000
     28 SI         -3.2842    4.1385    0.7786 Si      1  UNL1        0.0000
     29 C          -1.4903    3.6853    0.8151 C.2     1  UNL1        0.0000
     30 C          -1.3109    2.3729    0.5695 C.ar    1  UNL1        0.0000
     31 H           3.9281   -0.9039   -1.7434 H       1  UNL1        0.0000
     32 H           3.7242   -1.9592   -0.3025 H       1  UNL1        0.0000
     33 H           6.1521   -2.3999   -1.3922 H       1  UNL1        0.0000
     34 H           7.6359   -0.7749    0.0096 H       1  UNL1        0.0000
     35 H           6.8667    1.7465    1.7021 H       1  UNL1        0.0000
     36 H           1.5637    3.1582    0.9891 H       1  UNL1        0.0000
     37 H           1.6476   -0.9489    0.1618 H       1  UNL1        0.0000
     38 H           0.9221   -2.1304   -1.3467 H       1  UNL1        0.0000
     39 H          -2.8481   -4.6679   -1.4513 H       1  UNL1        0.0000
     40 H          -5.1032   -3.6824   -0.6789 H       1  UNL1        0.0000
     41 H          -6.7473   -1.7287    0.2811 H       1  UNL1        0.0000
     42 H          -5.3381    0.2691    0.7493 H       1  UNL1        0.0000
     43 H          -4.6972    2.0858    0.1792 H       1  UNL1        0.0000
     44 H          -3.6386    5.0397   -0.3438 H       1  UNL1        0.0000
     45 H          -3.8151    4.5358    2.1047 H       1  UNL1        0.0000
     46 H          -0.7218    4.4236    0.9788 H       1  UNL1        0.0000
@<TRIPOS>BOND
     1     1     2    1
     2     2     3    2
     3     3     4    1
     4     4     5   ar
     5     5     6   ar
     6     6     7   ar
     7     7     8   ar
     8     7     9    1
     9     9    10   ar
    10    10    11   ar
    11    11    12   ar
    12    12    13   ar
    13    12    14   ar
    14    14    15   ar
    15    15    16   ar
    16    16    17   ar
    17    17    18   ar
    18    18    19   ar
    19    19    20   ar
    20    20    21   ar
    21    21    22   ar
    22    22    23   ar
    23    23    24   ar
    24    24    25   ar
    25    25    26   ar
    26    26    27    2
    27    27    28    1
    28    28    29    1
    29    29    30    2
    30     8     1    1
    31    13     9   ar
    32    25    14   ar
    33    30    26   ar
    34     8     4   ar
    35    30    11   ar
    36    19    15   ar
    37    24    20   ar
    38     1    31    1
    39     1    32    1
    40     2    33    1
    41     3    34    1
    42     5    35    1
    43    10    36    1
    44    13    37    1
    45    16    38    1
    46    18    39    1
    47    21    40    1
    48    22    41    1
    49    23    42    1
    50    27    43    1
    51    28    44    1
    52    28    45    1
    53    29    46    1
