@<TRIPOS>MOLECULE
*****
 45 52 0 0 0
SMALL
GASTEIGER

@<TRIPOS>ATOM
      1 C          -4.3577   -0.5414    1.6147 C.3     1  UNL1        0.0000
      2 C          -5.8870   -0.6135    1.7067 C.2     1  UNL1        0.0000
      3 C          -6.4735   -0.0101    0.6475 C.2     1  UNL1        0.0000
      4 C          -5.4689    0.4969   -0.2125 C.ar    1  UNL1        0.0000
      5 C          -5.4412    1.1689   -1.3954 C.ar    1  UNL1        0.0000
      6 S          -3.7981    1.4434   -1.8579 S.2     1  UNL1        0.0000
      7 C          -3.1669    0.6604   -0.4473 C.ar    1  UNL1        0.0000
      8 C          -4.1982    0.2035    0.3327 C.ar    1  UNL1        0.0000
      9 C          -1.7347    0.5648   -0.2529 C.ar    1  UNL1        0.0000
     10 C          -0.8607   -0.1660   -1.1012 C.ar    1  UNL1        0.0000
     11 C           0.5608   -0.2839   -0.8962 C.ar    1  UNL1        0.0000
     12 C           1.2272    0.3479    0.2164 C.ar    1  UNL1        0.0000
     13 C           0.3564    1.0655    1.0400 C.ar    1  UNL1        0.0000
     14 C           0.6436    1.7924    2.1697 C.ar    1  UNL1        0.0000
     15 N          -0.5378    2.3356    2.6242 N.ar    1  UNL1        0.0000
     16 C          -1.5792    1.9638    1.8033 C.ar    1  UNL1        0.0000
     17 C          -1.0558    1.1658    0.8142 C.ar    1  UNL1        0.0000
     18 C           2.6575    0.1884    0.3607 C.ar    1  UNL1        0.0000
     19 O           3.3441    0.7599    1.3815 O.2     1  UNL1        0.0000
     20 C           4.6437    0.3830    1.1690 C.ar    1  UNL1        0.0000
     21 C           5.8383    0.6469    1.8667 C.ar    1  UNL1        0.0000
     22 C           6.8792    0.0170    1.2149 C.ar    1  UNL1        0.0000
     23 S           6.4058   -0.8648   -0.1962 S.2     1  UNL1        0.0000
     24 C           4.7572   -0.3961    0.0557 C.ar    1  UNL1        0.0000
     25 C           3.4642   -0.5311   -0.4855 C.ar    1  UNL1        0.0000
     26 C           2.9173   -1.1952   -1.6118 C.ar    1  UNL1        0.0000
     27 C           3.5772   -1.9304   -2.5259 C.2     1  UNL1        0.0000
     28 SI          2.4166   -2.5943   -3.8222 Si      1  UNL1        0.0000
     29 C           1.0068   -1.7411   -2.9310 C.2     1  UNL1        0.0000
     30 C           1.4360   -1.0782   -1.8348 C.ar    1  UNL1        0.0000
     31 H          -3.9242   -1.5439    1.5587 H       1  UNL1        0.0000
     32 H          -3.9467    0.0079    2.4659 H       1  UNL1        0.0000
     33 H          -6.4108   -1.0888    2.5223 H       1  UNL1        0.0000
     34 H          -7.5368    0.0758    0.4750 H       1  UNL1        0.0000
     35 H          -6.2578    1.5110   -2.0150 H       1  UNL1        0.0000
     36 H          -1.3128   -0.6703   -1.9534 H       1  UNL1        0.0000
     37 H           1.5696    1.9871    2.6935 H       1  UNL1        0.0000
     38 H          -0.6246    2.9305    3.4379 H       1  UNL1        0.0000
     39 H          -2.5840    2.3129    2.0004 H       1  UNL1        0.0000
     40 H           5.9307    1.2431    2.7635 H       1  UNL1        0.0000
     41 H           7.9244    0.0218    1.4935 H       1  UNL1        0.0000
     42 H           4.6339   -2.1414   -2.5585 H       1  UNL1        0.0000
     43 H           2.6660   -2.0124   -5.1622 H       1  UNL1        0.0000
     44 H           2.2956   -4.0707   -3.7780 H       1  UNL1        0.0000
     45 H           0.0055   -1.8209   -3.3197 H       1  UNL1        0.0000
@<TRIPOS>BOND
     1     1     2    1
     2     2     3    2
     3     3     4    1
     4     4     5   ar
     5     5     6   ar
     6     6     7   ar
     7     7     8   ar
     8     7     9    1
     9     9    10   ar
    10    10    11   ar
    11    11    12   ar
    12    12    13   ar
    13    13    14   ar
    14    14    15   ar
    15    15    16   ar
    16    16    17   ar
    17    12    18   ar
    18    18    19   ar
    19    19    20   ar
    20    20    21   ar
    21    21    22   ar
    22    22    23   ar
    23    23    24   ar
    24    24    25   ar
    25    25    26   ar
    26    26    27    2
    27    27    28    1
    28    28    29    1
    29    29    30    2
    30     8     1    1
    31    17     9   ar
    32    25    18   ar
    33    30    26   ar
    34     8     4   ar
    35    30    11   ar
    36    17    13   ar
    37    24    20   ar
    38     1    31    1
    39     1    32    1
    40     2    33    1
    41     3    34    1
    42     5    35    1
    43    10    36    1
    44    14    37    1
    45    15    38    1
    46    16    39    1
    47    21    40    1
    48    22    41    1
    49    27    42    1
    50    28    43    1
    51    28    44    1
    52    29    45    1
