@<TRIPOS>MOLECULE
*****
 47 54 0 0 0
SMALL
GASTEIGER

@<TRIPOS>ATOM
      1 C           5.6733   -0.9936   -0.1478 C.3     1  UNL1        0.0000
      2 C           7.2052   -0.9926   -0.1945 C.2     1  UNL1        0.0000
      3 C           7.6896    0.2520   -0.4072 C.2     1  UNL1        0.0000
      4 C           6.6072    1.1580   -0.5215 C.ar    1  UNL1        0.0000
      5 C           6.4733    2.4931   -0.7425 C.ar    1  UNL1        0.0000
      6 S           4.7958    2.9000   -0.7687 S.2     1  UNL1        0.0000
      7 C           4.2849    1.2640   -0.4872 C.ar    1  UNL1        0.0000
      8 C           5.3890    0.4547   -0.3698 C.ar    1  UNL1        0.0000
      9 C           2.8969    0.8906   -0.3801 C.ar    1  UNL1        0.0000
     10 C           2.3557   -0.0297    0.5005 C.ar    1  UNL1        0.0000
     11 C           0.9511   -0.1798    0.3282 C.ar    1  UNL1        0.0000
     12 C           0.4515    0.6239   -0.6796 C.ar    1  UNL1        0.0000
     13 S           1.6872    1.5461   -1.4079 S.2     1  UNL1        0.0000
     14 C          -0.9718    0.7164   -1.0511 C.ar    1  UNL1        0.0000
     15 N          -1.2641    1.5125   -2.1050 N.ar    1  UNL1        0.0000
     16 C          -2.5703    1.6856   -2.3964 C.ar    1  UNL1        0.0000
     17 C          -3.6369    1.1973   -1.6494 C.ar    1  UNL1        0.0000
     18 C          -4.9842    1.5373   -2.0554 C.ar    1  UNL1        0.0000
     19 C          -6.1545    1.2026   -1.3475 C.ar    1  UNL1        0.0000
     20 C          -5.8206    0.5519   -0.1759 C.ar    1  UNL1        0.0000
     21 C          -6.7185    0.2119    0.8024 C.ar    1  UNL1        0.0000
     22 N          -5.9865   -0.2991    1.8477 N.ar    1  UNL1        0.0000
     23 C          -4.6421   -0.2737    1.5396 C.ar    1  UNL1        0.0000
     24 C          -4.5055    0.1761    0.2462 C.ar    1  UNL1        0.0000
     25 C          -3.2993    0.4031   -0.4946 C.ar    1  UNL1        0.0000
     26 C          -1.9321    0.0409   -0.2679 C.ar    1  UNL1        0.0000
     27 C          -1.4019   -0.9984    0.6682 C.ar    1  UNL1        0.0000
     28 C          -2.0886   -2.0656    1.1300 C.2     1  UNL1        0.0000
     29 SI         -1.0559   -3.1374    2.2576 Si      1  UNL1        0.0000
     30 C           0.4018   -2.0534    1.8523 C.2     1  UNL1        0.0000
     31 C           0.0514   -1.0585    1.0129 C.ar    1  UNL1        0.0000
     32 H           5.2607   -1.6169   -0.9460 H       1  UNL1        0.0000
     33 H           5.3207   -1.3357    0.8289 H       1  UNL1        0.0000
     34 H           7.8050   -1.8822   -0.0728 H       1  UNL1        0.0000
     35 H           8.7333    0.5223   -0.4840 H       1  UNL1        0.0000
     36 H           7.2312    3.2486   -0.8918 H       1  UNL1        0.0000
     37 H           2.9443   -0.5613    1.2366 H       1  UNL1        0.0000
     38 H          -2.7387    2.3002   -3.2785 H       1  UNL1        0.0000
     39 H          -5.1172    2.1201   -2.9698 H       1  UNL1        0.0000
     40 H          -7.1480    1.4906   -1.6582 H       1  UNL1        0.0000
     41 H          -7.7920    0.3200    0.8773 H       1  UNL1        0.0000
     42 H          -6.3709   -0.5939    2.7360 H       1  UNL1        0.0000
     43 H          -3.9236   -0.5564    2.2946 H       1  UNL1        0.0000
     44 H          -3.1079   -2.3405    0.9140 H       1  UNL1        0.0000
     45 H          -1.4746   -3.0237    3.6753 H       1  UNL1        0.0000
     46 H          -0.8976   -4.5181    1.7426 H       1  UNL1        0.0000
     47 H           1.3942   -2.3092    2.1864 H       1  UNL1        0.0000
@<TRIPOS>BOND
     1     1     2    1
     2     2     3    2
     3     3     4    1
     4     4     5   ar
     5     5     6   ar
     6     6     7   ar
     7     7     8   ar
     8     7     9    1
     9     9    10   ar
    10    10    11   ar
    11    11    12   ar
    12    12    13   ar
    13    12    14   ar
    14    14    15   ar
    15    15    16   ar
    16    16    17   ar
    17    17    18   ar
    18    18    19   ar
    19    19    20   ar
    20    20    21   ar
    21    21    22   ar
    22    22    23   ar
    23    23    24   ar
    24    24    25   ar
    25    25    26   ar
    26    26    27   ar
    27    27    28    2
    28    28    29    1
    29    29    30    1
    30    30    31    2
    31     8     1    1
    32    13     9   ar
    33    26    14   ar
    34    31    27   ar
    35     8     4   ar
    36    31    11   ar
    37    25    17   ar
    38    24    20   ar
    39     1    32    1
    40     1    33    1
    41     2    34    1
    42     3    35    1
    43     5    36    1
    44    10    37    1
    45    16    38    1
    46    18    39    1
    47    19    40    1
    48    21    41    1
    49    22    42    1
    50    23    43    1
    51    28    44    1
    52    29    45    1
    53    29    46    1
    54    30    47    1
