@<TRIPOS>MOLECULE
*****
 49 56 0 0 0
SMALL
GASTEIGER

@<TRIPOS>ATOM
      1 C           5.1603   -1.5728   -0.6221 C.3     1  UNL1        0.0000
      2 C           6.6608   -1.7882   -0.8469 C.2     1  UNL1        0.0000
      3 C           7.2948   -0.6179   -1.0874 C.2     1  UNL1        0.0000
      4 C           6.3512    0.4375   -1.0498 C.ar    1  UNL1        0.0000
      5 C           6.3938    1.7889   -1.1963 C.ar    1  UNL1        0.0000
      6 S           4.8056    2.4353   -0.9908 S.2     1  UNL1        0.0000
      7 C           4.0927    0.8751   -0.7099 C.ar    1  UNL1        0.0000
      8 C           5.0675   -0.0917   -0.7802 C.ar    1  UNL1        0.0000
      9 C           2.6559    0.7553   -0.4655 C.ar    1  UNL1        0.0000
     10 C           1.8993   -0.2451   -1.0462 C.ar    1  UNL1        0.0000
     11 C           0.5212   -0.3056   -0.7408 C.ar    1  UNL1        0.0000
     12 C          -0.3755   -1.2885   -1.2115 C.ar    1  UNL1        0.0000
     13 C          -0.0734   -2.3119   -2.0786 C.ar    1  UNL1        0.0000
     14 N          -1.2291   -3.0234   -2.2827 N.ar    1  UNL1        0.0000
     15 C          -2.2576   -2.4703   -1.5502 C.ar    1  UNL1        0.0000
     16 C          -1.7549   -1.4054   -0.8368 C.ar    1  UNL1        0.0000
     17 C          -2.4171   -0.5258    0.0371 C.ar    1  UNL1        0.0000
     18 C          -3.7568   -0.6998    0.6322 C.ar    1  UNL1        0.0000
     19 SI         -4.7505   -2.2884    0.7549 Si      1  UNL1        0.0000
     20 C          -6.0044   -1.4011    1.8023 C.2     1  UNL1        0.0000
     21 C          -5.6300   -0.1260    1.9963 C.2     1  UNL1        0.0000
     22 C          -4.3602    0.2715    1.3729 C.ar    1  UNL1        0.0000
     23 C          -3.7007    1.5614    1.4977 C.ar    1  UNL1        0.0000
     24 C          -4.2946    2.6735    1.9790 C.2     1  UNL1        0.0000
     25 SI         -3.2032    4.1660    1.8029 Si      1  UNL1        0.0000
     26 C          -1.9372    3.0554    0.9918 C.2     1  UNL1        0.0000
     27 C          -2.3168    1.7577    0.9911 C.ar    1  UNL1        0.0000
     28 C          -1.5693    0.6017    0.3799 C.ar    1  UNL1        0.0000
     29 C          -0.1188    0.6452    0.1046 C.ar    1  UNL1        0.0000
     30 C           0.7935    1.5604    0.6560 C.ar    1  UNL1        0.0000
     31 N           2.1273    1.6487    0.3945 N.ar    1  UNL1        0.0000
     32 H           4.5793   -2.1035   -1.3812 H       1  UNL1        0.0000
     33 H           4.8673   -1.8945    0.3811 H       1  UNL1        0.0000
     34 H           7.1354   -2.7574   -0.8106 H       1  UNL1        0.0000
     35 H           8.3523   -0.4954   -1.2735 H       1  UNL1        0.0000
     36 H           7.2345    2.4362   -1.4001 H       1  UNL1        0.0000
     37 H           2.3535   -0.9606   -1.7196 H       1  UNL1        0.0000
     38 H           0.8376   -2.5974   -2.5860 H       1  UNL1        0.0000
     39 H          -1.3212   -3.8205   -2.8999 H       1  UNL1        0.0000
     40 H          -3.2435   -2.8936   -1.6582 H       1  UNL1        0.0000
     41 H          -4.0592   -3.3631    1.5106 H       1  UNL1        0.0000
     42 H          -5.3442   -2.7227   -0.5360 H       1  UNL1        0.0000
     43 H          -6.8914   -1.8824    2.1818 H       1  UNL1        0.0000
     44 H          -6.2074    0.5729    2.5879 H       1  UNL1        0.0000
     45 H          -5.2982    2.7694    2.3596 H       1  UNL1        0.0000
     46 H          -3.7577    5.1723    0.8660 H       1  UNL1        0.0000
     47 H          -2.7385    4.6911    3.1090 H       1  UNL1        0.0000
     48 H          -1.0566    3.5057    0.5665 H       1  UNL1        0.0000
     49 H           0.4844    2.2718    1.4157 H       1  UNL1        0.0000
@<TRIPOS>BOND
     1     1     2    1
     2     2     3    2
     3     3     4    1
     4     4     5   ar
     5     5     6   ar
     6     6     7   ar
     7     7     8   ar
     8     7     9    1
     9     9    10   ar
    10    10    11   ar
    11    11    12   ar
    12    12    13   ar
    13    13    14   ar
    14    14    15   ar
    15    15    16   ar
    16    16    17   ar
    17    17    18   ar
    18    18    19    1
    19    19    20    1
    20    20    21    2
    21    21    22    1
    22    22    23   ar
    23    23    24    2
    24    24    25    1
    25    25    26    1
    26    26    27    2
    27    27    28   ar
    28    28    29   ar
    29    29    30   ar
    30    30    31   ar
    31     8     1    1
    32    31     9   ar
    33     8     4   ar
    34    29    11   ar
    35    16    12   ar
    36    28    17   ar
    37    22    18   ar
    38    27    23   ar
    39     1    32    1
    40     1    33    1
    41     2    34    1
    42     3    35    1
    43     5    36    1
    44    10    37    1
    45    13    38    1
    46    14    39    1
    47    15    40    1
    48    19    41    1
    49    19    42    1
    50    20    43    1
    51    21    44    1
    52    24    45    1
    53    25    46    1
    54    25    47    1
    55    26    48    1
    56    30    49    1
