@<TRIPOS>MOLECULE
*****
 39 45 0 0 0
SMALL
GASTEIGER

@<TRIPOS>ATOM
      1 C          -4.2633   -1.5438    1.0234 C.3     1  UNL1       -0.0075
      2 C          -5.7605   -1.8229    1.1870 C.2     1  UNL1       -0.0791
      3 C          -6.5052   -0.8815    0.5664 C.2     1  UNL1       -0.0574
      4 C          -5.6445    0.0658   -0.0391 C.ar    1  UNL1       -0.0142
      5 C          -5.8173    1.1947   -0.7749 C.ar    1  UNL1       -0.0163
      6 S          -4.2768    1.8465   -1.1803 S.2     1  UNL1       -0.0953
      7 C          -3.3929    0.5886   -0.3522 C.ar    1  UNL1        0.0300
      8 C          -4.2950   -0.2897    0.2079 C.ar    1  UNL1       -0.0212
      9 C          -1.9419    0.5811   -0.3301 C.ar    1  UNL1        0.0274
     10 C          -1.0833    1.4983   -0.9142 C.ar    1  UNL1       -0.0380
     11 C           0.2554    1.1491   -0.6723 C.ar    1  UNL1        0.0011
     12 C           1.3951    1.8671   -1.1241 C.ar    1  UNL1        0.0287
     13 C           1.4637    3.0065   -1.8613 C.ar    1  UNL1        0.1000
     14 O           2.7884    3.2977   -2.0346 O.2     1  UNL1       -0.4698
     15 C           3.5110    2.3208   -1.3934 C.ar    1  UNL1        0.1000
     16 C           2.6792    1.3925   -0.8018 C.ar    1  UNL1        0.0293
     17 C           3.0062    0.2491   -0.0573 C.ar    1  UNL1        0.0082
     18 C           4.2940   -0.2443    0.2772 C.ar    1  UNL1        0.0277
     19 S           5.8644    0.3796   -0.1088 S.2     1  UNL1       -0.0960
     20 C           6.6800   -0.8651    0.7069 C.ar    1  UNL1       -0.0232
     21 C           5.8067   -1.7566    1.2743 C.ar    1  UNL1       -0.0470
     22 C           4.4300   -1.4183    1.0392 C.ar    1  UNL1       -0.0102
     23 C           3.2642   -2.0970    1.4654 C.ar    1  UNL1       -0.0529
     24 C           1.9911   -1.6234    1.1439 C.ar    1  UNL1       -0.0523
     25 C           1.8349   -0.4577    0.3869 C.ar    1  UNL1       -0.0018
     26 C           0.4995    0.0071    0.0703 C.ar    1  UNL1        0.0284
     27 S          -1.0513   -0.6540    0.4804 S.2     1  UNL1       -0.0871
     28 H          -3.7795   -2.3669    0.4901 H       1  UNL1        0.0356
     29 H          -3.7973   -1.3856    1.9999 H       1  UNL1        0.0356
     30 H          -6.1521   -2.6688    1.7320 H       1  UNL1        0.0575
     31 H          -7.5850   -0.8482    0.5320 H       1  UNL1        0.0621
     32 H          -6.7303    1.6744   -1.0975 H       1  UNL1        0.0699
     33 H          -1.4127    2.3620   -1.4775 H       1  UNL1        0.0635
     34 H           0.7621    3.6920   -2.3136 H       1  UNL1        0.1036
     35 H           4.5790    2.4576   -1.4696 H       1  UNL1        0.1036
     36 H           7.7608   -0.8881    0.7343 H       1  UNL1        0.0694
     37 H           6.1308   -2.6224    1.8389 H       1  UNL1        0.0629
     38 H           3.3582   -3.0064    2.0556 H       1  UNL1        0.0624
     39 H           1.1343   -2.1897    1.5008 H       1  UNL1        0.0624
@<TRIPOS>BOND
     1     1     2    1
     2     2     3    2
     3     3     4    1
     4     4     5   ar
     5     5     6   ar
     6     6     7   ar
     7     7     8   ar
     8     7     9    1
     9     9    10   ar
    10    10    11   ar
    11    11    12   ar
    12    12    13   ar
    13    13    14   ar
    14    14    15   ar
    15    15    16   ar
    16    16    17   ar
    17    17    18   ar
    18    18    19   ar
    19    19    20   ar
    20    20    21   ar
    21    21    22   ar
    22    22    23   ar
    23    23    24   ar
    24    24    25   ar
    25    25    26   ar
    26    26    27   ar
    27     8     1    1
    28    27     9   ar
    29     8     4   ar
    30    26    11   ar
    31    16    12   ar
    32    25    17   ar
    33    22    18   ar
    34     1    28    1
    35     1    29    1
    36     2    30    1
    37     3    31    1
    38     5    32    1
    39    10    33    1
    40    13    34    1
    41    15    35    1
    42    20    36    1
    43    21    37    1
    44    23    38    1
    45    24    39    1
