@<TRIPOS>MOLECULE
*****
 45 52 0 0 0
SMALL
GASTEIGER

@<TRIPOS>ATOM
      1 C          -5.6510    0.6961   -0.7701 C.3     1  UNL1       -0.0075
      2 C          -7.1290    0.9093   -0.4340 C.2     1  UNL1       -0.0791
      3 C          -7.3171    1.0152    0.9000 C.2     1  UNL1       -0.0574
      4 C          -6.0680    0.8921    1.5554 C.ar    1  UNL1       -0.0142
      5 C          -5.6492    0.9161    2.8473 C.ar    1  UNL1       -0.0163
      6 S          -3.9430    0.6961    2.8918 S.2     1  UNL1       -0.0953
      7 C          -3.7909    0.5706    1.1573 C.ar    1  UNL1        0.0300
      8 C          -5.0431    0.7000    0.5960 C.ar    1  UNL1       -0.0212
      9 C          -2.5158    0.3635    0.4924 C.ar    1  UNL1        0.0274
     10 C          -2.2957    0.2538   -0.8708 C.ar    1  UNL1       -0.0380
     11 C          -0.9313    0.0582   -1.1404 C.ar    1  UNL1        0.0011
     12 C          -0.3537   -0.0945   -2.4324 C.ar    1  UNL1        0.0287
     13 C          -0.9222   -0.0929   -3.6673 C.ar    1  UNL1        0.1000
     14 O           0.0829   -0.2795   -4.5823 O.2     1  UNL1       -0.4698
     15 C           1.2602   -0.3930   -3.8831 C.ar    1  UNL1        0.1000
     16 C           1.0300   -0.2824   -2.5298 C.ar    1  UNL1        0.0282
     17 C           1.9775   -0.3453   -1.4888 C.ar    1  UNL1       -0.0055
     18 C           3.3769   -0.5379   -1.6301 C.ar    1  UNL1       -0.0456
     19 C           4.2166   -0.5820   -0.5113 C.ar    1  UNL1       -0.0166
     20 C           5.6438   -0.7794   -0.6730 C.ar    1  UNL1       -0.0533
     21 C           6.5907   -0.8415    0.3799 C.ar    1  UNL1       -0.0504
     22 C           5.9571   -0.6855    1.6015 C.ar    1  UNL1        0.0205
     23 C           6.5439   -0.6893    2.8382 C.ar    1  UNL1        0.0994
     24 O           5.5847   -0.5060    3.7971 O.2     1  UNL1       -0.4698
     25 C           4.3797   -0.3854    3.1576 C.ar    1  UNL1        0.1000
     26 C           4.5618   -0.4899    1.8024 C.ar    1  UNL1        0.0276
     27 C           3.5965   -0.4240    0.7730 C.ar    1  UNL1       -0.0065
     28 C           2.2014   -0.2313    0.9273 C.ar    1  UNL1       -0.0445
     29 C           1.3684   -0.1889   -0.2038 C.ar    1  UNL1       -0.0023
     30 C          -0.0622    0.0078   -0.0621 C.ar    1  UNL1        0.0283
     31 S          -1.0275    0.2193    1.3611 S.2     1  UNL1       -0.0871
     32 H          -5.5078   -0.2624   -1.2769 H       1  UNL1        0.0356
     33 H          -5.2756    1.5186   -1.3853 H       1  UNL1        0.0356
     34 H          -7.9084    0.9656   -1.1793 H       1  UNL1        0.0575
     35 H          -8.2646    1.1690    1.3970 H       1  UNL1        0.0621
     36 H          -6.2199    1.0459    3.7557 H       1  UNL1        0.0699
     37 H          -3.0728    0.3118   -1.6189 H       1  UNL1        0.0635
     38 H          -1.9175    0.0140   -4.0724 H       1  UNL1        0.1036
     39 H           2.1376   -0.5448   -4.4958 H       1  UNL1        0.1036
     40 H           3.8017   -0.6528   -2.6244 H       1  UNL1        0.0630
     41 H           6.0330   -0.8909   -1.6876 H       1  UNL1        0.0624
     42 H           7.6495   -0.9901    0.2245 H       1  UNL1        0.0625
     43 H           7.5540   -0.8004    3.2056 H       1  UNL1        0.1035
     44 H           3.5278   -0.2348    3.8050 H       1  UNL1        0.1036
     45 H           1.7905   -0.1179    1.9262 H       1  UNL1        0.0630
@<TRIPOS>BOND
     1     1     2    1
     2     2     3    2
     3     3     4    1
     4     4     5   ar
     5     5     6   ar
     6     6     7   ar
     7     7     8   ar
     8     7     9    1
     9     9    10   ar
    10    10    11   ar
    11    11    12   ar
    12    12    13   ar
    13    13    14   ar
    14    14    15   ar
    15    15    16   ar
    16    16    17   ar
    17    17    18   ar
    18    18    19   ar
    19    19    20   ar
    20    20    21   ar
    21    21    22   ar
    22    22    23   ar
    23    23    24   ar
    24    24    25   ar
    25    25    26   ar
    26    26    27   ar
    27    27    28   ar
    28    28    29   ar
    29    29    30   ar
    30    30    31   ar
    31     8     1    1
    32    31     9   ar
    33     8     4   ar
    34    30    11   ar
    35    16    12   ar
    36    29    17   ar
    37    27    19   ar
    38    26    22   ar
    39     1    32    1
    40     1    33    1
    41     2    34    1
    42     3    35    1
    43     5    36    1
    44    10    37    1
    45    13    38    1
    46    15    39    1
    47    18    40    1
    48    20    41    1
    49    21    42    1
    50    23    43    1
    51    25    44    1
    52    28    45    1
