@<TRIPOS>MOLECULE
*****
 40 46 0 0 0
SMALL
GASTEIGER

@<TRIPOS>ATOM
      1 C           3.2383    1.4936   -0.2226 C.3     1  UNL1        0.0000
      2 C           4.6307    2.1200   -0.3206 C.2     1  UNL1        0.0000
      3 C           5.5834    1.1729   -0.4684 C.2     1  UNL1        0.0000
      4 C           4.9703   -0.1035   -0.4840 C.ar    1  UNL1        0.0000
      5 C           5.4083   -1.3847   -0.6016 C.ar    1  UNL1        0.0000
      6 S           4.0583   -2.4527   -0.5335 S.2     1  UNL1        0.0000
      7 C           2.9036   -1.1637   -0.3462 C.ar    1  UNL1        0.0000
      8 C           3.5678    0.0411   -0.3398 C.ar    1  UNL1        0.0000
      9 C           1.4947   -1.4371   -0.2260 C.ar    1  UNL1        0.0000
     10 C           0.8170   -2.6441   -0.2289 C.ar    1  UNL1        0.0000
     11 C          -0.5322   -2.3163   -0.0804 C.ar    1  UNL1        0.0000
     12 C          -1.6379   -3.2166   -0.0245 C.ar    1  UNL1        0.0000
     13 N          -1.4986   -4.5305   -0.1120 N.ar    1  UNL1        0.0000
     14 S          -3.0805   -5.0659    0.0105 S.2     1  UNL1        0.0000
     15 N          -3.8883   -3.6081    0.1707 N.ar    1  UNL1        0.0000
     16 C          -2.9540   -2.6304    0.1356 C.ar    1  UNL1        0.0000
     17 C          -3.1613   -1.2275    0.2347 C.ar    1  UNL1        0.0000
     18 C          -4.5337   -0.7139    0.3965 C.ar    1  UNL1        0.0000
     19 C          -4.7723    0.6031    0.4939 C.ar    1  UNL1        0.0000
     20 C          -3.6796    1.5500    0.4413 C.ar    1  UNL1        0.0000
     21 C          -3.8601    2.8810    0.5334 C.2     1  UNL1        0.0000
     22 SI         -2.2462    3.7901    0.4276 Si      1  UNL1        0.0000
     23 C          -1.3876    2.1218    0.2507 C.2     1  UNL1        0.0000
     24 C          -2.2680    1.0981    0.2790 C.ar    1  UNL1        0.0000
     25 C          -2.0167   -0.3655    0.1726 C.ar    1  UNL1        0.0000
     26 C          -0.7374   -0.9508    0.0164 C.ar    1  UNL1        0.0000
     27 N           0.5440   -0.4426   -0.0781 N.ar    1  UNL1        0.0000
     28 H           2.7768    1.7293    0.7405 H       1  UNL1        0.0000
     29 H           2.6040    1.8343   -1.0459 H       1  UNL1        0.0000
     30 H           4.8131    3.1835   -0.2758 H       1  UNL1        0.0000
     31 H           6.6458    1.3498   -0.5608 H       1  UNL1        0.0000
     32 H           6.4134   -1.7631   -0.7210 H       1  UNL1        0.0000
     33 H           1.2492   -3.6321   -0.3263 H       1  UNL1        0.0000
     34 H          -5.3521   -1.4264    0.4357 H       1  UNL1        0.0000
     35 H          -5.7862    0.9715    0.6129 H       1  UNL1        0.0000
     36 H          -4.7961    3.4036    0.6534 H       1  UNL1        0.0000
     37 H          -1.8681    4.4653    1.6917 H       1  UNL1        0.0000
     38 H          -2.1104    4.6052   -0.8029 H       1  UNL1        0.0000
     39 H          -0.3222    2.1270    0.1471 H       1  UNL1        0.0000
     40 H           0.7707    0.5343   -0.0446 H       1  UNL1        0.0000
@<TRIPOS>BOND
     1     1     2    1
     2     2     3    2
     3     3     4    1
     4     4     5   ar
     5     5     6   ar
     6     6     7   ar
     7     7     8   ar
     8     7     9    1
     9     9    10   ar
    10    10    11   ar
    11    11    12   ar
    12    12    13   ar
    13    13    14   ar
    14    14    15   ar
    15    15    16   ar
    16    16    17   ar
    17    17    18   ar
    18    18    19   ar
    19    19    20   ar
    20    20    21    2
    21    21    22    1
    22    22    23    1
    23    23    24    2
    24    24    25   ar
    25    25    26   ar
    26    26    27   ar
    27     8     1    1
    28    27     9   ar
    29     8     4   ar
    30    26    11   ar
    31    16    12   ar
    32    25    17   ar
    33    24    20   ar
    34     1    28    1
    35     1    29    1
    36     2    30    1
    37     3    31    1
    38     5    32    1
    39    10    33    1
    40    18    34    1
    41    19    35    1
    42    21    36    1
    43    22    37    1
    44    22    38    1
    45    23    39    1
    46    27    40    1
