@<TRIPOS>MOLECULE
*****
 33 38 0 0 0
SMALL
GASTEIGER

@<TRIPOS>ATOM
      1 C          -4.1739   -0.4900   -0.4534 C.3     1  UNL1       -0.0075
      2 C          -5.6879   -0.6430   -0.2866 C.2     1  UNL1       -0.0791
      3 C          -6.0440   -0.5945    1.0161 C.2     1  UNL1       -0.0574
      4 C          -4.8836   -0.4157    1.8075 C.ar    1  UNL1       -0.0142
      5 C          -4.6300   -0.2992    3.1369 C.ar    1  UNL1       -0.0163
      6 S          -2.9371   -0.0997    3.3734 S.2     1  UNL1       -0.0953
      7 C          -2.5664   -0.1735    1.6691 C.ar    1  UNL1        0.0300
      8 C          -3.7419   -0.3478    0.9710 C.ar    1  UNL1       -0.0212
      9 C          -1.2137   -0.0611    1.1539 C.ar    1  UNL1        0.0273
     10 C          -0.8159   -0.1091   -0.1702 C.ar    1  UNL1       -0.0386
     11 C           0.6002    0.0325   -0.3638 C.ar    1  UNL1       -0.0091
     12 C           1.3709    0.0356   -1.5401 C.ar    1  UNL1       -0.0390
     13 C           2.7607    0.1905   -1.4987 C.ar    1  UNL1        0.0241
     14 S           3.8465    0.2153   -2.8591 S.2     1  UNL1       -0.0849
     15 C           5.1950    0.4358   -1.8026 C.ar    1  UNL1        0.0584
     16 C           6.6035    0.5875   -1.8360 C.ar    1  UNL1       -0.0095
     17 C           6.9435    0.7161   -0.5124 C.ar    1  UNL1        0.0937
     18 O           5.8670    0.6556    0.3162 O.2     1  UNL1       -0.4618
     19 C           4.7941    0.4812   -0.5103 C.ar    1  UNL1        0.1495
     20 C           3.4077    0.3460   -0.2719 C.ar    1  UNL1        0.0332
     21 C           2.6443    0.3437    0.9029 C.ar    1  UNL1       -0.0356
     22 C           1.2569    0.1884    0.8514 C.ar    1  UNL1        0.0207
     23 S           0.1564    0.1588    2.1653 S.2     1  UNL1       -0.0877
     24 H          -3.9415    0.4029   -1.0405 H       1  UNL1        0.0356
     25 H          -3.7481   -1.3821   -0.9211 H       1  UNL1        0.0356
     26 H          -6.3692   -0.7722   -1.1144 H       1  UNL1        0.0575
     27 H          -7.0501   -0.6777    1.4024 H       1  UNL1        0.0621
     28 H          -5.3129   -0.3173    3.9741 H       1  UNL1        0.0699
     29 H          -1.5004   -0.2412   -0.9965 H       1  UNL1        0.0635
     30 H           0.8733   -0.0852   -2.5003 H       1  UNL1        0.0635
     31 H           7.2622    0.6004   -2.6912 H       1  UNL1        0.0660
     32 H           7.8911    0.8545   -0.0084 H       1  UNL1        0.1030
     33 H           3.1432    0.4646    1.8626 H       1  UNL1        0.0636
@<TRIPOS>BOND
     1     1     2    1
     2     2     3    2
     3     3     4    1
     4     4     5   ar
     5     5     6   ar
     6     6     7   ar
     7     7     8   ar
     8     7     9    1
     9     9    10   ar
    10    10    11   ar
    11    11    12   ar
    12    12    13   ar
    13    13    14   ar
    14    14    15   ar
    15    15    16   ar
    16    16    17   ar
    17    17    18   ar
    18    18    19   ar
    19    19    20   ar
    20    20    21   ar
    21    21    22   ar
    22    22    23   ar
    23     8     1    1
    24    23     9   ar
    25     8     4   ar
    26    22    11   ar
    27    20    13   ar
    28    19    15   ar
    29     1    24    1
    30     1    25    1
    31     2    26    1
    32     3    27    1
    33     5    28    1
    34    10    29    1
    35    12    30    1
    36    16    31    1
    37    17    32    1
    38    21    33    1
