@<TRIPOS>MOLECULE
*****
 44 50 0 0 0
SMALL
GASTEIGER

@<TRIPOS>ATOM
      1 C           5.6609    0.9456   -0.9217 C.3     1  UNL1       -0.0075
      2 C           7.1952    0.9425   -0.9340 C.2     1  UNL1       -0.0791
      3 C           7.6925    0.0133   -0.0863 C.2     1  UNL1       -0.0574
      4 C           6.6187   -0.6616    0.5437 C.ar    1  UNL1       -0.0142
      5 C           6.4939   -1.6581    1.4593 C.ar    1  UNL1       -0.0163
      6 S           4.8197   -1.9559    1.7491 S.2     1  UNL1       -0.0942
      7 C           4.2861   -0.7320    0.6313 C.ar    1  UNL1        0.0416
      8 C           5.3946   -0.1356    0.0731 C.ar    1  UNL1       -0.0203
      9 C           2.8609   -0.4534    0.3897 C.ar    1  UNL1        0.0784
     10 C           1.8132   -1.1198    1.0117 C.ar    1  UNL1       -0.0274
     11 C           0.4868   -0.7728    0.7064 C.ar    1  UNL1       -0.0138
     12 C          -0.5718   -1.4337    1.3235 C.ar    1  UNL1       -0.0533
     13 C          -1.8953   -1.0971    1.0276 C.ar    1  UNL1       -0.0527
     14 C          -2.2403   -0.0880    0.1047 C.ar    1  UNL1       -0.0060
     15 C          -1.1634    0.5829   -0.5218 C.ar    1  UNL1        0.0100
     16 C          -1.5191    1.5812   -1.4347 C.ar    1  UNL1        0.0366
     17 N          -2.7735    1.9596   -1.7696 N.ar    1  UNL1       -0.2543
     18 C          -3.8040    1.3456   -1.1958 C.ar    1  UNL1        0.0722
     19 C          -5.0786    1.8169   -1.6159 C.ar    1  UNL1       -0.0351
     20 C          -6.3315    1.3487   -1.1738 C.ar    1  UNL1       -0.0506
     21 C          -6.1479    0.3415   -0.2509 C.ar    1  UNL1        0.0001
     22 C          -7.1697   -0.3253    0.3713 C.ar    1  UNL1        0.0094
     23 N          -6.5856   -1.2428    1.2078 N.ar    1  UNL1       -0.3659
     24 C          -5.2083   -1.1593    1.1176 C.ar    1  UNL1        0.0101
     25 C          -4.8926   -0.1736    0.2096 C.ar    1  UNL1        0.0091
     26 C          -3.6042    0.2954   -0.2338 C.ar    1  UNL1        0.0172
     27 C           0.2079    0.2429   -0.2233 C.ar    1  UNL1        0.0094
     28 C           1.3462    0.8455   -0.7876 C.ar    1  UNL1        0.0366
     29 N           2.6356    0.5291   -0.5099 N.ar    1  UNL1       -0.2538
     30 H           5.2804    1.9141   -0.5856 H       1  UNL1        0.0356
     31 H           5.2673    0.6974   -1.9113 H       1  UNL1        0.0356
     32 H           7.7841    1.6062   -1.5489 H       1  UNL1        0.0575
     33 H           8.7394   -0.1890    0.0890 H       1  UNL1        0.0621
     34 H           7.2590   -2.2240    1.9711 H       1  UNL1        0.0699
     35 H           2.0080   -1.9070    1.7324 H       1  UNL1        0.0645
     36 H          -0.3861   -2.2249    2.0480 H       1  UNL1        0.0624
     37 H          -2.6554   -1.6592    1.5511 H       1  UNL1        0.0624
     38 H          -0.7689    2.1566   -1.9703 H       1  UNL1        0.0836
     39 H          -5.0841    2.6216   -2.3545 H       1  UNL1        0.0639
     40 H          -7.2754    1.7396   -1.5233 H       1  UNL1        0.0625
     41 H          -8.2459   -0.2394    0.3030 H       1  UNL1        0.0813
     42 H          -7.0879   -1.8876    1.8046 H       1  UNL1        0.1648
     43 H          -4.6268   -1.8298    1.7273 H       1  UNL1        0.0813
     44 H           1.2660    1.6438   -1.5196 H       1  UNL1        0.0836
@<TRIPOS>BOND
     1     1     2    1
     2     2     3    2
     3     3     4    1
     4     4     5   ar
     5     5     6   ar
     6     6     7   ar
     7     7     8   ar
     8     7     9    1
     9     9    10   ar
    10    10    11   ar
    11    11    12   ar
    12    12    13   ar
    13    13    14   ar
    14    14    15   ar
    15    15    16   ar
    16    16    17   ar
    17    17    18   ar
    18    18    19   ar
    19    19    20   ar
    20    20    21   ar
    21    21    22   ar
    22    22    23   ar
    23    23    24   ar
    24    24    25   ar
    25    25    26   ar
    26    15    27   ar
    27    27    28   ar
    28    28    29   ar
    29     8     1    1
    30    29     9   ar
    31     8     4   ar
    32    27    11   ar
    33    26    14   ar
    34    26    18   ar
    35    25    21   ar
    36     1    30    1
    37     1    31    1
    38     2    32    1
    39     3    33    1
    40     5    34    1
    41    10    35    1
    42    12    36    1
    43    13    37    1
    44    16    38    1
    45    19    39    1
    46    20    40    1
    47    22    41    1
    48    23    42    1
    49    24    43    1
    50    28    44    1
