@<TRIPOS>MOLECULE
*****
 47 54 0 0 0
SMALL
GASTEIGER

@<TRIPOS>ATOM
      1 SI          2.5402    1.3542    4.2032 Si      1  UNL1        0.0000
      2 C           3.6798    1.1371    2.7544 C.2     1  UNL1        0.0000
      3 C           3.0100    0.7121    1.6667 C.ar    1  UNL1        0.0000
      4 C           3.5534    0.4427    0.3870 C.ar    1  UNL1        0.0000
      5 C           2.7611    0.0059   -0.6705 C.ar    1  UNL1        0.0000
      6 N           3.5687   -0.1651   -1.7775 N.ar    1  UNL1        0.0000
      7 C           4.8575    0.1571   -1.4250 C.ar    1  UNL1        0.0000
      8 C           6.1757    0.2468   -1.9164 C.ar    1  UNL1        0.0000
      9 C           6.8820    0.6798   -0.8155 C.ar    1  UNL1        0.0000
     10 O           6.0995    0.8563    0.2892 O.2     1  UNL1        0.0000
     11 C           4.8496    0.5225   -0.1248 C.ar    1  UNL1        0.0000
     12 C           1.3216   -0.2063   -0.5409 C.ar    1  UNL1        0.0000
     13 C           0.4221   -0.6451   -1.5182 C.ar    1  UNL1        0.0000
     14 C           0.6370   -0.9970   -2.8269 C.ar    1  UNL1        0.0000
     15 O          -0.5374   -1.3809   -3.4136 O.2     1  UNL1        0.0000
     16 C          -1.5192   -1.2774   -2.4726 C.ar    1  UNL1        0.0000
     17 C          -0.9840   -0.8219   -1.2950 C.ar    1  UNL1        0.0000
     18 C          -1.6566   -0.5880   -0.0929 C.ar    1  UNL1        0.0000
     19 C          -0.7520   -0.1527    0.9127 C.ar    1  UNL1        0.0000
     20 C           0.6676    0.0404    0.7246 C.ar    1  UNL1        0.0000
     21 C           1.5411    0.5132    1.8562 C.ar    1  UNL1        0.0000
     22 C           1.1219    0.7985    3.1093 C.2     1  UNL1        0.0000
     23 C          -3.0716   -0.7838    0.1169 C.ar    1  UNL1        0.0000
     24 C          -3.6299   -1.7867    0.9545 C.ar    1  UNL1        0.0000
     25 C          -5.0421   -1.9798    1.1663 C.ar    1  UNL1        0.0000
     26 C          -6.0502   -1.1884    0.5710 C.ar    1  UNL1        0.0000
     27 C          -5.4856   -0.2082   -0.2333 C.ar    1  UNL1        0.0000
     28 C          -6.1730    0.7390   -0.9466 C.ar    1  UNL1        0.0000
     29 N          -5.2321    1.5169   -1.5884 N.ar    1  UNL1        0.0000
     30 C          -3.9600    1.0739   -1.2898 C.ar    1  UNL1        0.0000
     31 C          -4.0890   -0.0088   -0.4531 C.ar    1  UNL1        0.0000
     32 H           2.3974    2.7696    4.6215 H       1  UNL1        0.0000
     33 H           2.8057    0.3910    5.2990 H       1  UNL1        0.0000
     34 H           4.7376    1.3391    2.8222 H       1  UNL1        0.0000
     35 H           3.3146   -0.4690   -2.7060 H       1  UNL1        0.0000
     36 H           6.5604    0.0352   -2.9023 H       1  UNL1        0.0000
     37 H           7.9286    0.9050   -0.6598 H       1  UNL1        0.0000
     38 H           1.4881   -1.0471   -3.4858 H       1  UNL1        0.0000
     39 H          -2.5113   -1.5577   -2.7988 H       1  UNL1        0.0000
     40 H          -1.1825    0.0553    1.8917 H       1  UNL1        0.0000
     41 H           0.1272    0.7449    3.5175 H       1  UNL1        0.0000
     42 H          -2.9503   -2.4674    1.4702 H       1  UNL1        0.0000
     43 H          -5.3486   -2.7897    1.8293 H       1  UNL1        0.0000
     44 H          -7.1066   -1.3393    0.7380 H       1  UNL1        0.0000
     45 H          -7.2288    0.9437   -1.0592 H       1  UNL1        0.0000
     46 H          -5.4431    2.3048   -2.1869 H       1  UNL1        0.0000
     47 H          -3.0947    1.5760   -1.7016 H       1  UNL1        0.0000
@<TRIPOS>BOND
     1     1     2    1
     2     2     3    2
     3     3     4   ar
     4     4     5   ar
     5     5     6   ar
     6     6     7   ar
     7     7     8   ar
     8     8     9   ar
     9     9    10   ar
    10    10    11   ar
    11     5    12   ar
    12    12    13   ar
    13    13    14   ar
    14    14    15   ar
    15    15    16   ar
    16    16    17   ar
    17    17    18   ar
    18    18    19   ar
    19    19    20   ar
    20    20    21   ar
    21    21    22    2
    22    18    23    1
    23    23    24   ar
    24    24    25   ar
    25    25    26   ar
    26    26    27   ar
    27    27    28   ar
    28    28    29   ar
    29    29    30   ar
    30    30    31   ar
    31    22     1    1
    32    31    23   ar
    33    21     3   ar
    34    31    27   ar
    35    11     4   ar
    36    20    12   ar
    37    11     7   ar
    38    17    13   ar
    39     1    32    1
    40     1    33    1
    41     2    34    1
    42     6    35    1
    43     8    36    1
    44     9    37    1
    45    14    38    1
    46    16    39    1
    47    19    40    1
    48    22    41    1
    49    24    42    1
    50    25    43    1
    51    26    44    1
    52    28    45    1
    53    29    46    1
    54    30    47    1
