@<TRIPOS>MOLECULE
*****
 41 47 0 0 0
SMALL
GASTEIGER

@<TRIPOS>ATOM
      1 C          -4.4160   -1.7347    0.6675 C.3     1  UNL1       -0.0075
      2 C          -5.9185   -2.0209    0.7696 C.2     1  UNL1       -0.0791
      3 C          -6.6488   -0.9034    0.5499 C.2     1  UNL1       -0.0574
      4 C          -5.7737    0.1801    0.2926 C.ar    1  UNL1       -0.0142
      5 C          -5.9122    1.5048    0.0136 C.ar    1  UNL1       -0.0163
      6 S          -4.3477    2.2128   -0.1888 S.2     1  UNL1       -0.0957
      7 C          -3.5258    0.7203    0.1224 C.ar    1  UNL1        0.0255
      8 C          -4.4374   -0.2772    0.3531 C.ar    1  UNL1       -0.0217
      9 C          -2.0764    0.6587    0.0683 C.ar    1  UNL1        0.0177
     10 C          -1.3957   -0.0243   -0.9652 C.ar    1  UNL1       -0.0435
     11 C           0.0167   -0.1221   -1.0523 C.ar    1  UNL1       -0.0131
     12 C           0.6167   -0.8108   -2.1124 C.ar    1  UNL1       -0.0532
     13 C           2.0122   -0.9230   -2.2224 C.ar    1  UNL1       -0.0514
     14 C           2.8454   -0.3335   -1.2501 C.ar    1  UNL1        0.0081
     15 C           4.2635   -0.2604   -1.0655 C.ar    1  UNL1        0.0074
     16 C           5.3731   -0.7504   -1.7853 C.ar    1  UNL1       -0.0520
     17 C           6.6665   -0.4932   -1.3160 C.ar    1  UNL1       -0.0611
     18 C           6.8651    0.2399   -0.1484 C.ar    1  UNL1       -0.0598
     19 C           5.7826    0.7366    0.5833 C.ar    1  UNL1       -0.0378
     20 C           4.4966    0.4699    0.0993 C.ar    1  UNL1        0.0475
     21 N           3.2692    0.8265    0.6017 N.ar    1  UNL1       -0.3536
     22 C           2.2502    0.3532   -0.1943 C.ar    1  UNL1        0.0574
     23 C           0.8567    0.4757   -0.0683 C.ar    1  UNL1        0.0342
     24 C           0.2306    1.1717    1.0068 C.ar    1  UNL1        0.1101
     25 N           0.8444    1.7944    2.0327 N.ar    1  UNL1       -0.1901
     26 S          -0.3542    2.4249    2.9903 S.2     1  UNL1        0.1165
     27 N          -1.7015    1.9357    2.1647 N.ar    1  UNL1       -0.1901
     28 C          -1.2780    1.2633    1.0794 C.ar    1  UNL1        0.1087
     29 H          -3.9636   -2.3190   -0.1385 H       1  UNL1        0.0356
     30 H          -3.9158   -1.9391    1.6182 H       1  UNL1        0.0356
     31 H          -6.3245   -2.9962    0.9932 H       1  UNL1        0.0575
     32 H          -7.7274   -0.8365    0.5678 H       1  UNL1        0.0621
     33 H          -6.8083    2.1001   -0.0867 H       1  UNL1        0.0699
     34 H          -2.0012   -0.4934   -1.7435 H       1  UNL1        0.0631
     35 H           0.0045   -1.2775   -2.8827 H       1  UNL1        0.0624
     36 H           2.4479   -1.4640   -3.0580 H       1  UNL1        0.0624
     37 H           5.2283   -1.3225   -2.6967 H       1  UNL1        0.0624
     38 H           7.5230   -0.8699   -1.8697 H       1  UNL1        0.0618
     39 H           7.8777    0.4298    0.2005 H       1  UNL1        0.0618
     40 H           5.9401    1.3079    1.4925 H       1  UNL1        0.0638
     41 H           3.1153    1.3658    1.4439 H       1  UNL1        0.1659
@<TRIPOS>BOND
     1     1     2    1
     2     2     3    2
     3     3     4    1
     4     4     5   ar
     5     5     6   ar
     6     6     7   ar
     7     7     8   ar
     8     7     9    1
     9     9    10   ar
    10    10    11   ar
    11    11    12   ar
    12    12    13   ar
    13    13    14   ar
    14    14    15   ar
    15    15    16   ar
    16    16    17   ar
    17    17    18   ar
    18    18    19   ar
    19    19    20   ar
    20    20    21   ar
    21    21    22   ar
    22    22    23   ar
    23    23    24   ar
    24    24    25   ar
    25    25    26   ar
    26    26    27   ar
    27    27    28   ar
    28     8     1    1
    29    28     9   ar
    30     8     4   ar
    31    23    11   ar
    32    28    24   ar
    33    22    14   ar
    34    20    15   ar
    35     1    29    1
    36     1    30    1
    37     2    31    1
    38     3    32    1
    39     5    33    1
    40    10    34    1
    41    12    35    1
    42    13    36    1
    43    16    37    1
    44    17    38    1
    45    18    39    1
    46    19    40    1
    47    21    41    1
