@<TRIPOS>MOLECULE
*****
 46 53 0 0 0
SMALL
GASTEIGER

@<TRIPOS>ATOM
      1 C          -4.9329   -0.9295    2.0713 C.3     1  UNL1       -0.0075
      2 C          -6.4317   -1.0917    2.3530 C.2     1  UNL1       -0.0791
      3 C          -7.1789   -0.5278    1.3772 C.2     1  UNL1       -0.0574
      4 C          -6.3217    0.0500    0.4070 C.ar    1  UNL1       -0.0142
      5 C          -6.4829    0.7877   -0.7280 C.ar    1  UNL1       -0.0163
      6 S          -4.9306    1.1760   -1.3924 S.2     1  UNL1       -0.0957
      7 C          -4.0799    0.3677   -0.1070 C.ar    1  UNL1        0.0255
      8 C          -4.9775   -0.1718    0.7824 C.ar    1  UNL1       -0.0217
      9 C          -2.6272    0.3502   -0.1079 C.ar    1  UNL1        0.0177
     10 C          -1.8724   -0.2800   -1.1092 C.ar    1  UNL1       -0.0436
     11 C          -0.4553   -0.3411   -1.1200 C.ar    1  UNL1       -0.0145
     12 C           0.1315   -1.0925   -2.1297 C.ar    1  UNL1       -0.0533
     13 C           1.5159   -1.2791   -2.2066 C.ar    1  UNL1       -0.0528
     14 C           2.4372   -0.6673   -1.3377 C.ar    1  UNL1       -0.0074
     15 C           3.8946   -0.9289   -1.4908 C.ar    1  UNL1        0.0086
     16 C           4.4583   -1.8630   -2.3850 C.ar    1  UNL1        0.0359
     17 N           5.7817   -2.1339   -2.5690 N.ar    1  UNL1       -0.2626
     18 C           6.6554   -1.4466   -1.8105 C.ar    1  UNL1        0.0282
     19 C           6.2716   -0.5057   -0.8820 C.ar    1  UNL1       -0.0352
     20 C           4.8898   -0.2544   -0.7309 C.ar    1  UNL1       -0.0053
     21 C           4.3159    0.6965    0.1289 C.ar    1  UNL1        0.0078
     22 C           5.0114    1.5912    0.9106 C.ar    1  UNL1        0.0100
     23 N           4.0849    2.4090    1.5042 N.ar    1  UNL1       -0.3659
     24 C           2.8199    2.0459    1.0997 C.ar    1  UNL1        0.0100
     25 C           2.9141    0.9258    0.3054 C.ar    1  UNL1        0.0084
     26 C           1.8548    0.2160   -0.3460 C.ar    1  UNL1        0.0017
     27 C           0.3942    0.2912   -0.1589 C.ar    1  UNL1        0.0187
     28 C          -0.3615    0.8820    0.9426 C.ar    1  UNL1        0.1088
     29 N           0.1368    1.4003    2.0823 N.ar    1  UNL1       -0.1901
     30 S          -1.1159    1.9415    3.0012 S.2     1  UNL1        0.1165
     31 N          -2.3914    1.5066    2.0533 N.ar    1  UNL1       -0.1901
     32 C          -1.8849    0.9137    0.9553 C.ar    1  UNL1        0.1087
     33 H          -4.4477   -1.9040    1.9521 H       1  UNL1        0.0356
     34 H          -4.4563   -0.3499    2.8667 H       1  UNL1        0.0356
     35 H          -6.8205   -1.5856    3.2343 H       1  UNL1        0.0575
     36 H          -8.2586   -0.4962    1.3458 H       1  UNL1        0.0621
     37 H          -7.3893    1.1170   -1.2157 H       1  UNL1        0.0699
     38 H          -2.4256   -0.7709   -1.9142 H       1  UNL1        0.0630
     39 H          -0.4837   -1.5923   -2.8783 H       1  UNL1        0.0624
     40 H           1.8509   -1.9118   -3.0212 H       1  UNL1        0.0624
     41 H           3.8334   -2.4902   -3.0190 H       1  UNL1        0.0836
     42 H           7.7025   -1.6821   -1.9739 H       1  UNL1        0.0830
     43 H           7.0166    0.0192   -0.2950 H       1  UNL1        0.0639
     44 H           6.0676    1.7556    1.0779 H       1  UNL1        0.0813
     45 H           4.2978    3.1959    2.1083 H       1  UNL1        0.1648
     46 H           1.9896    2.6572    1.4126 H       1  UNL1        0.0813
@<TRIPOS>BOND
     1     1     2    1
     2     2     3    2
     3     3     4    1
     4     4     5   ar
     5     5     6   ar
     6     6     7   ar
     7     7     8   ar
     8     7     9    1
     9     9    10   ar
    10    10    11   ar
    11    11    12   ar
    12    12    13   ar
    13    13    14   ar
    14    14    15   ar
    15    15    16   ar
    16    16    17   ar
    17    17    18   ar
    18    18    19   ar
    19    19    20   ar
    20    20    21   ar
    21    21    22   ar
    22    22    23   ar
    23    23    24   ar
    24    24    25   ar
    25    25    26   ar
    26    26    27   ar
    27    27    28   ar
    28    28    29   ar
    29    29    30   ar
    30    30    31   ar
    31    31    32   ar
    32     8     1    1
    33    32     9   ar
    34     8     4   ar
    35    27    11   ar
    36    32    28   ar
    37    26    14   ar
    38    20    15   ar
    39    25    21   ar
    40     1    33    1
    41     1    34    1
    42     2    35    1
    43     3    36    1
    44     5    37    1
    45    10    38    1
    46    12    39    1
    47    13    40    1
    48    16    41    1
    49    18    42    1
    50    19    43    1
    51    22    44    1
    52    23    45    1
    53    24    46    1
