@<TRIPOS>MOLECULE
*****
 48 55 0 0 0
SMALL
GASTEIGER

@<TRIPOS>ATOM
      1 C           4.8338    1.6544    1.2919 C.3     1  UNL1        0.0000
      2 C           6.3106    1.7809    1.6843 C.2     1  UNL1        0.0000
      3 C           7.0310    0.7263    1.2379 C.2     1  UNL1        0.0000
      4 C           6.1730   -0.1621    0.5448 C.ar    1  UNL1        0.0000
      5 C           6.3121   -1.3483   -0.1056 C.ar    1  UNL1        0.0000
      6 S           4.7778   -1.8440   -0.7267 S.2     1  UNL1        0.0000
      7 C           3.9529   -0.4458   -0.0937 C.ar    1  UNL1        0.0000
      8 C           4.8588    0.3563    0.5573 C.ar    1  UNL1        0.0000
      9 C           2.5509   -0.2578   -0.3045 C.ar    1  UNL1        0.0000
     10 C           1.7142   -1.0215    0.4277 C.ar    1  UNL1        0.0000
     11 C           0.2440   -0.9093    0.3391 C.ar    1  UNL1        0.0000
     12 C          -0.5356   -1.7392    1.1194 C.ar    1  UNL1        0.0000
     13 N          -1.8795   -1.7159    1.1247 N.ar    1  UNL1        0.0000
     14 C          -2.5268   -0.8367    0.3269 C.ar    1  UNL1        0.0000
     15 C          -1.8343    0.0650   -0.5187 C.ar    1  UNL1        0.0000
     16 N          -2.5068    0.9387   -1.3073 N.ar    1  UNL1        0.0000
     17 C          -3.8561    0.9601   -1.2995 C.ar    1  UNL1        0.0000
     18 C          -4.6522    0.1391   -0.5276 C.ar    1  UNL1        0.0000
     19 C          -6.0864    0.2560   -0.6056 C.ar    1  UNL1        0.0000
     20 C          -6.9948   -0.5247    0.1321 C.ar    1  UNL1        0.0000
     21 C          -6.3340   -1.4302    0.9523 C.ar    1  UNL1        0.0000
     22 C          -7.0270   -2.2953    1.7632 C.ar    1  UNL1        0.0000
     23 S          -5.9611   -3.2936    2.6601 S.2     1  UNL1        0.0000
     24 C          -4.5737   -2.5612    1.9566 C.ar    1  UNL1        0.0000
     25 C          -4.8978   -1.5726    1.0536 C.ar    1  UNL1        0.0000
     26 C          -3.9526   -0.7853    0.3091 C.ar    1  UNL1        0.0000
     27 C          -0.4190    0.0140   -0.5020 C.ar    1  UNL1        0.0000
     28 C           0.4846    0.8810   -1.3283 C.ar    1  UNL1        0.0000
     29 C           0.1218    1.8302   -2.2182 C.2     1  UNL1        0.0000
     30 SI          1.5844    2.6461   -3.0319 Si      1  UNL1        0.0000
     31 C           2.6783    1.5420   -2.0144 C.2     1  UNL1        0.0000
     32 C           1.9621    0.7241   -1.2136 C.ar    1  UNL1        0.0000
     33 H           4.1982    1.6075    2.1805 H       1  UNL1        0.0000
     34 H           4.5321    2.4839    0.6465 H       1  UNL1        0.0000
     35 H           6.7069    2.6137    2.2458 H       1  UNL1        0.0000
     36 H           8.0916    0.5764    1.3818 H       1  UNL1        0.0000
     37 H           7.1954   -1.9508   -0.2616 H       1  UNL1        0.0000
     38 H           2.1086   -1.7536    1.1288 H       1  UNL1        0.0000
     39 H          -0.0964   -2.4743    1.7891 H       1  UNL1        0.0000
     40 H          -4.2871    1.6993   -1.9711 H       1  UNL1        0.0000
     41 H          -6.5129    1.0000   -1.2821 H       1  UNL1        0.0000
     42 H          -8.0679   -0.4133    0.0516 H       1  UNL1        0.0000
     43 H          -8.0960   -2.4036    1.8850 H       1  UNL1        0.0000
     44 H          -3.6015   -2.9175    2.2635 H       1  UNL1        0.0000
     45 H          -0.8713    2.1405   -2.4953 H       1  UNL1        0.0000
     46 H           1.7235    4.0747   -2.6580 H       1  UNL1        0.0000
     47 H           1.6719    2.3550   -4.4832 H       1  UNL1        0.0000
     48 H           3.7523    1.5916   -2.1050 H       1  UNL1        0.0000
@<TRIPOS>BOND
     1     1     2    1
     2     2     3    2
     3     3     4    1
     4     4     5   ar
     5     5     6   ar
     6     6     7   ar
     7     7     8   ar
     8     7     9    1
     9     9    10   ar
    10    10    11   ar
    11    11    12   ar
    12    12    13   ar
    13    13    14   ar
    14    14    15   ar
    15    15    16   ar
    16    16    17   ar
    17    17    18   ar
    18    18    19   ar
    19    19    20   ar
    20    20    21   ar
    21    21    22   ar
    22    22    23   ar
    23    23    24   ar
    24    24    25   ar
    25    25    26   ar
    26    15    27   ar
    27    27    28   ar
    28    28    29    2
    29    29    30    1
    30    30    31    1
    31    31    32    2
    32     8     1    1
    33    32     9   ar
    34     8     4   ar
    35    27    11   ar
    36    32    28   ar
    37    26    14   ar
    38    26    18   ar
    39    25    21   ar
    40     1    33    1
    41     1    34    1
    42     2    35    1
    43     3    36    1
    44     5    37    1
    45    10    38    1
    46    12    39    1
    47    17    40    1
    48    19    41    1
    49    20    42    1
    50    22    43    1
    51    24    44    1
    52    29    45    1
    53    30    46    1
    54    30    47    1
    55    31    48    1
