@<TRIPOS>MOLECULE
*****
 36 41 0 0 0
SMALL
GASTEIGER

@<TRIPOS>ATOM
      1 C           3.9971    2.0127   -0.1954 C.3     1  UNL1       -0.0075
      2 C           5.4438    2.5153   -0.1620 C.2     1  UNL1       -0.0791
      3 C           6.2921    1.5427    0.2394 C.2     1  UNL1       -0.0574
      4 C           5.5550    0.3610    0.4953 C.ar    1  UNL1       -0.0142
      5 C           5.8591   -0.8996    0.9021 C.ar    1  UNL1       -0.0163
      6 S           4.4140   -1.8339    0.9792 S.2     1  UNL1       -0.0953
      7 C           3.3975   -0.5165    0.4587 C.ar    1  UNL1        0.0300
      8 C           4.1800    0.5963    0.2483 C.ar    1  UNL1       -0.0212
      9 C           1.9685   -0.6876    0.3094 C.ar    1  UNL1        0.0288
     10 C           1.2715   -1.8706    0.1540 C.ar    1  UNL1       -0.0204
     11 C          -0.1364   -1.6874    0.0405 C.ar    1  UNL1        0.0793
     12 N          -1.0338   -2.6926   -0.1219 N.ar    1  UNL1       -0.2538
     13 C          -2.3288   -2.3198   -0.2091 C.ar    1  UNL1        0.0367
     14 C          -2.8345   -1.0137   -0.1502 C.ar    1  UNL1        0.0134
     15 C          -1.8809    0.0011    0.0175 C.ar    1  UNL1        0.0181
     16 C          -2.3308    1.3204    0.0828 C.ar    1  UNL1        0.0372
     17 N          -3.6299    1.6822   -0.0065 N.ar    1  UNL1       -0.2542
     18 C          -4.5500    0.7198   -0.1669 C.ar    1  UNL1        0.0745
     19 C          -5.8753    1.1019   -0.2564 C.ar    1  UNL1       -0.0176
     20 C          -6.8535    0.1409   -0.4220 C.ar    1  UNL1        0.0296
     21 N          -6.5910   -1.1743   -0.5035 N.ar    1  UNL1       -0.2625
     22 C          -5.2912   -1.5349   -0.4144 C.ar    1  UNL1        0.0373
     23 C          -4.2168   -0.6459   -0.2459 C.ar    1  UNL1        0.0277
     24 C          -0.5050   -0.3469    0.1138 C.ar    1  UNL1        0.0473
     25 S           0.8882    0.6428    0.3170 S.2     1  UNL1       -0.0855
     26 H           3.5910    2.0734   -1.2089 H       1  UNL1        0.0356
     27 H           3.3825    2.5863    0.5036 H       1  UNL1        0.0356
     28 H           5.7302    3.5224   -0.4262 H       1  UNL1        0.0575
     29 H           7.3631    1.6404    0.3477 H       1  UNL1        0.0621
     30 H           6.8177   -1.3313    1.1526 H       1  UNL1        0.0699
     31 H           1.7363   -2.8475    0.1149 H       1  UNL1        0.0650
     32 H          -2.9934   -3.1714   -0.3375 H       1  UNL1        0.0836
     33 H          -1.6487    2.1565    0.2125 H       1  UNL1        0.0836
     34 H          -6.1441    2.1510   -0.1967 H       1  UNL1        0.0654
     35 H          -7.9020    0.4151   -0.4950 H       1  UNL1        0.0830
     36 H          -5.1416   -2.6083   -0.4865 H       1  UNL1        0.0836
@<TRIPOS>BOND
     1     1     2    1
     2     2     3    2
     3     3     4    1
     4     4     5   ar
     5     5     6   ar
     6     6     7   ar
     7     7     8   ar
     8     7     9    1
     9     9    10   ar
    10    10    11   ar
    11    11    12   ar
    12    12    13   ar
    13    13    14   ar
    14    14    15   ar
    15    15    16   ar
    16    16    17   ar
    17    17    18   ar
    18    18    19   ar
    19    19    20   ar
    20    20    21   ar
    21    21    22   ar
    22    22    23   ar
    23    15    24   ar
    24    24    25   ar
    25     8     1    1
    26    25     9   ar
    27     8     4   ar
    28    24    11   ar
    29    23    14   ar
    30    23    18   ar
    31     1    26    1
    32     1    27    1
    33     2    28    1
    34     3    29    1
    35     5    30    1
    36    10    31    1
    37    13    32    1
    38    16    33    1
    39    19    34    1
    40    20    35    1
    41    22    36    1
