@<TRIPOS>MOLECULE
*****
 35 40 0 0 0
SMALL
GASTEIGER

@<TRIPOS>ATOM
      1 C           4.4779   -0.9844   -0.5694 C.3     1  UNL1       -0.0075
      2 C           6.0059   -0.8902   -0.5450 C.2     1  UNL1       -0.0791
      3 C           6.4173    0.2355    0.0792 C.2     1  UNL1       -0.0574
      4 C           5.2842    0.9667    0.5110 C.ar    1  UNL1       -0.0142
      5 C           5.0838    2.1365    1.1718 C.ar    1  UNL1       -0.0163
      6 S           3.3927    2.4009    1.3520 S.2     1  UNL1       -0.0953
      7 C           2.9511    0.9249    0.5318 C.ar    1  UNL1        0.0300
      8 C           4.1031    0.2750    0.1448 C.ar    1  UNL1       -0.0212
      9 C           1.5719    0.5197    0.3303 C.ar    1  UNL1        0.0288
     10 C           1.1229   -0.6200   -0.3086 C.ar    1  UNL1       -0.0204
     11 C          -0.2975   -0.7370   -0.3455 C.ar    1  UNL1        0.0792
     12 N          -0.9611   -1.7765   -0.9231 N.ar    1  UNL1       -0.2537
     13 C          -2.3054   -1.7210   -0.8638 C.ar    1  UNL1        0.0395
     14 C          -3.0290   -0.6947   -0.2652 C.ar    1  UNL1        0.0441
     15 C          -4.4354   -0.6749   -0.2252 C.ar    1  UNL1        0.1439
     16 O          -5.2740   -1.6186   -0.7450 O.2     1  UNL1       -0.4623
     17 C          -6.5427   -1.2090   -0.4862 C.ar    1  UNL1        0.0932
     18 C          -6.5372   -0.0133    0.1939 C.ar    1  UNL1       -0.0161
     19 C          -5.1740    0.3441    0.3695 C.ar    1  UNL1        0.0208
     20 C          -4.4886    1.4182    0.9666 C.ar    1  UNL1       -0.0504
     21 C          -3.0841    1.4313    0.9454 C.ar    1  UNL1       -0.0521
     22 C          -2.3551    0.3860    0.3358 C.ar    1  UNL1        0.0029
     23 C          -0.9335    0.3371    0.2788 C.ar    1  UNL1        0.0460
     24 S           0.2353    1.4450    0.8850 S.2     1  UNL1       -0.0855
     25 H           4.1403   -1.8742   -0.0307 H       1  UNL1        0.0356
     26 H           4.1112   -0.9932   -1.5996 H       1  UNL1        0.0356
     27 H           6.6557   -1.6370   -0.9765 H       1  UNL1        0.0575
     28 H           7.4439    0.5381    0.2299 H       1  UNL1        0.0621
     29 H           5.8044    2.8443    1.5557 H       1  UNL1        0.0699
     30 H           1.7667   -1.3679   -0.7477 H       1  UNL1        0.0650
     31 H          -2.8141   -2.5613   -1.3314 H       1  UNL1        0.0837
     32 H          -7.3258   -1.8638   -0.8428 H       1  UNL1        0.1030
     33 H          -7.4084    0.5347    0.5233 H       1  UNL1        0.0655
     34 H          -5.0343    2.2301    1.4395 H       1  UNL1        0.0625
     35 H          -2.5681    2.2688    1.4112 H       1  UNL1        0.0624
@<TRIPOS>BOND
     1     1     2    1
     2     2     3    2
     3     3     4    1
     4     4     5   ar
     5     5     6   ar
     6     6     7   ar
     7     7     8   ar
     8     7     9    1
     9     9    10   ar
    10    10    11   ar
    11    11    12   ar
    12    12    13   ar
    13    13    14   ar
    14    14    15   ar
    15    15    16   ar
    16    16    17   ar
    17    17    18   ar
    18    18    19   ar
    19    19    20   ar
    20    20    21   ar
    21    21    22   ar
    22    22    23   ar
    23    23    24   ar
    24     8     1    1
    25    24     9   ar
    26     8     4   ar
    27    23    11   ar
    28    22    14   ar
    29    19    15   ar
    30     1    25    1
    31     1    26    1
    32     2    27    1
    33     3    28    1
    34     5    29    1
    35    10    30    1
    36    13    31    1
    37    17    32    1
    38    18    33    1
    39    20    34    1
    40    21    35    1
