@<TRIPOS>MOLECULE
*****
 39 45 0 0 0
SMALL
GASTEIGER

@<TRIPOS>ATOM
      1 C           4.1867   -0.1501    1.5936 C.3     1  UNL1       -0.0075
      2 C           5.7084   -0.0451    1.7485 C.2     1  UNL1       -0.0791
      3 C           6.2991    0.3126    0.5851 C.2     1  UNL1       -0.0574
      4 C           5.3043    0.4760   -0.4096 C.ar    1  UNL1       -0.0142
      5 C           5.2837    0.8209   -1.7260 C.ar    1  UNL1       -0.0163
      6 S           3.6497    0.8184   -2.2918 S.2     1  UNL1       -0.0958
      7 C           3.0156    0.3448   -0.7519 C.ar    1  UNL1        0.0241
      8 C           4.0360    0.2067    0.1532 C.ar    1  UNL1       -0.0217
      9 C           1.5863    0.1607   -0.5833 C.ar    1  UNL1        0.0007
     10 C           0.6805    1.2441   -0.5671 C.ar    1  UNL1       -0.0099
     11 C          -0.6875    0.9885   -0.3695 C.ar    1  UNL1        0.1375
     12 O          -1.6799    1.9283   -0.3250 O.2     1  UNL1       -0.4547
     13 C          -2.8528    1.2590   -0.1149 C.ar    1  UNL1        0.1369
     14 C          -4.1029    1.8469   -0.0072 C.ar    1  UNL1       -0.0105
     15 C          -5.2350    1.0410    0.2104 C.ar    1  UNL1       -0.0073
     16 C          -6.6192    1.3909    0.3565 C.ar    1  UNL1       -0.0469
     17 C          -7.4286    0.2978    0.5584 C.ar    1  UNL1       -0.0232
     18 S          -6.5425   -1.1585    0.5756 S.2     1  UNL1       -0.0966
     19 C          -5.0485   -0.3410    0.3104 C.ar    1  UNL1        0.0201
     20 C          -3.7733   -0.9197    0.1985 C.ar    1  UNL1       -0.0361
     21 C          -2.6499   -0.1159   -0.0177 C.ar    1  UNL1        0.0296
     22 C          -1.2663   -0.2505   -0.1830 C.ar    1  UNL1        0.0362
     23 C          -0.3890   -1.3769   -0.1951 C.ar    1  UNL1        0.0011
     24 C          -0.7429   -2.6837   -0.0363 C.ar    1  UNL1       -0.0159
     25 S           0.6700   -3.6633   -0.1417 S.2     1  UNL1       -0.1038
     26 C           1.6933   -2.2967   -0.4013 C.ar    1  UNL1       -0.0160
     27 C           0.9954   -1.1058   -0.3955 C.ar    1  UNL1       -0.0019
     28 H           3.6792    0.5659    2.2459 H       1  UNL1        0.0356
     29 H           3.8462   -1.1680    1.8013 H       1  UNL1        0.0356
     30 H           6.2256   -0.2355    2.6772 H       1  UNL1        0.0575
     31 H           7.3592    0.4551    0.4297 H       1  UNL1        0.0621
     32 H           6.1003    1.0742   -2.3868 H       1  UNL1        0.0699
     33 H           1.0268    2.2648   -0.6977 H       1  UNL1        0.0661
     34 H          -4.2019    2.9251   -0.0915 H       1  UNL1        0.0661
     35 H          -6.9975    2.4051    0.3138 H       1  UNL1        0.0629
     36 H          -8.5011    0.2850    0.6969 H       1  UNL1        0.0694
     37 H          -3.6731   -1.9973    0.2818 H       1  UNL1        0.0636
     38 H          -1.7068   -3.1400    0.1281 H       1  UNL1        0.0700
     39 H           2.7523   -2.4637   -0.5456 H       1  UNL1        0.0700
@<TRIPOS>BOND
     1     1     2    1
     2     2     3    2
     3     3     4    1
     4     4     5   ar
     5     5     6   ar
     6     6     7   ar
     7     7     8   ar
     8     7     9    1
     9     9    10   ar
    10    10    11   ar
    11    11    12   ar
    12    12    13   ar
    13    13    14   ar
    14    14    15   ar
    15    15    16   ar
    16    16    17   ar
    17    17    18   ar
    18    18    19   ar
    19    19    20   ar
    20    20    21   ar
    21    21    22   ar
    22    22    23   ar
    23    23    24   ar
    24    24    25   ar
    25    25    26   ar
    26    26    27   ar
    27     8     1    1
    28    27     9   ar
    29     8     4   ar
    30    22    11   ar
    31    27    23   ar
    32    21    13   ar
    33    19    15   ar
    34     1    28    1
    35     1    29    1
    36     2    30    1
    37     3    31    1
    38     5    32    1
    39    10    33    1
    40    14    34    1
    41    16    35    1
    42    17    36    1
    43    20    37    1
    44    24    38    1
    45    26    39    1
