@<TRIPOS>MOLECULE
*****
 46 53 0 0 0
SMALL
GASTEIGER

@<TRIPOS>ATOM
      1 C           4.9872   -0.8293    1.1694 C.3     1  UNL1       -0.0075
      2 C           6.5020   -0.8238    1.4069 C.2     1  UNL1       -0.0791
      3 C           7.1027    0.1859    0.7358 C.2     1  UNL1       -0.0574
      4 C           6.1217    0.9182    0.0237 C.ar    1  UNL1       -0.0142
      5 C           6.1145    2.0048   -0.7956 C.ar    1  UNL1       -0.0163
      6 S           4.4920    2.3328   -1.2955 S.2     1  UNL1       -0.0958
      7 C           3.8439    0.9983   -0.4018 C.ar    1  UNL1        0.0240
      8 C           4.8522    0.3419    0.2558 C.ar    1  UNL1       -0.0217
      9 C           2.4189    0.7268   -0.4296 C.ar    1  UNL1       -0.0017
     10 C           1.4635    1.5899    0.1335 C.ar    1  UNL1       -0.0385
     11 C           0.0748    1.2781    0.1209 C.ar    1  UNL1        0.0217
     12 S          -1.2021    2.2964    0.6738 S.2     1  UNL1       -0.0876
     13 C          -2.4444    1.1194    0.3505 C.ar    1  UNL1        0.0288
     14 C          -1.8285   -0.0476   -0.1096 C.ar    1  UNL1        0.0072
     15 C          -2.6881   -1.2006   -0.1814 C.ar    1  UNL1        0.0088
     16 C          -2.4001   -2.5299   -0.3030 C.ar    1  UNL1        0.0100
     17 N          -3.6145   -3.1825   -0.2855 N.ar    1  UNL1       -0.3659
     18 C          -4.6330   -2.2759   -0.0750 C.ar    1  UNL1        0.0100
     19 C          -4.0674   -1.0231    0.0379 C.ar    1  UNL1        0.0078
     20 C          -4.7592    0.1584    0.3647 C.ar    1  UNL1       -0.0077
     21 C          -6.1531    0.3048    0.5586 C.ar    1  UNL1       -0.0534
     22 C          -6.6751    1.5406    0.9331 C.ar    1  UNL1       -0.0611
     23 C          -5.8241    2.6277    1.1248 C.ar    1  UNL1       -0.0611
     24 C          -4.4430    2.4925    0.9394 C.ar    1  UNL1       -0.0529
     25 C          -3.8771    1.2587    0.5489 C.ar    1  UNL1       -0.0029
     26 C          -0.4567    0.0968   -0.3811 C.ar    1  UNL1        0.0058
     27 C           0.4758   -0.7423   -1.1044 C.ar    1  UNL1       -0.0015
     28 C           0.1683   -1.7664   -1.9537 C.ar    1  UNL1       -0.0160
     29 S           1.6079   -2.4631   -2.5842 S.2     1  UNL1       -0.1038
     30 C           2.5950   -1.2884   -1.8043 C.ar    1  UNL1       -0.0160
     31 C           1.8557   -0.3881   -1.0621 C.ar    1  UNL1       -0.0020
     32 H           4.4461   -0.6787    2.1076 H       1  UNL1        0.0356
     33 H           4.6744   -1.7610    0.6903 H       1  UNL1        0.0356
     34 H           7.0076   -1.5423    2.0347 H       1  UNL1        0.0575
     35 H           8.1605    0.4076    0.7377 H       1  UNL1        0.0621
     36 H           6.9348    2.6238   -1.1297 H       1  UNL1        0.0699
     37 H           1.7902    2.5242    0.5882 H       1  UNL1        0.0635
     38 H          -1.4840   -3.0983   -0.3632 H       1  UNL1        0.0813
     39 H          -3.7366   -4.1844   -0.3603 H       1  UNL1        0.1648
     40 H          -5.6530   -2.6236    0.0135 H       1  UNL1        0.0813
     41 H          -6.8232   -0.5384    0.4222 H       1  UNL1        0.0624
     42 H          -7.7456    1.6559    1.0812 H       1  UNL1        0.0618
     43 H          -6.2351    3.5901    1.4206 H       1  UNL1        0.0618
     44 H          -3.8207    3.3699    1.0973 H       1  UNL1        0.0624
     45 H          -0.7872   -2.1436   -2.2821 H       1  UNL1        0.0700
     46 H           3.6624   -1.3123   -1.9783 H       1  UNL1        0.0700
@<TRIPOS>BOND
     1     1     2    1
     2     2     3    2
     3     3     4    1
     4     4     5   ar
     5     5     6   ar
     6     6     7   ar
     7     7     8   ar
     8     7     9    1
     9     9    10   ar
    10    10    11   ar
    11    11    12   ar
    12    12    13   ar
    13    13    14   ar
    14    14    15   ar
    15    15    16   ar
    16    16    17   ar
    17    17    18   ar
    18    18    19   ar
    19    19    20   ar
    20    20    21   ar
    21    21    22   ar
    22    22    23   ar
    23    23    24   ar
    24    24    25   ar
    25    14    26   ar
    26    26    27   ar
    27    27    28   ar
    28    28    29   ar
    29    29    30   ar
    30    30    31   ar
    31     8     1    1
    32    31     9   ar
    33     8     4   ar
    34    26    11   ar
    35    31    27   ar
    36    25    13   ar
    37    19    15   ar
    38    25    20   ar
    39     1    32    1
    40     1    33    1
    41     2    34    1
    42     3    35    1
    43     5    36    1
    44    10    37    1
    45    16    38    1
    46    17    39    1
    47    18    40    1
    48    21    41    1
    49    22    42    1
    50    23    43    1
    51    24    44    1
    52    28    45    1
    53    30    46    1
