@<TRIPOS>MOLECULE
*****
 44 51 0 0 0
SMALL
GASTEIGER

@<TRIPOS>ATOM
      1 C           4.3749    1.2354    1.3997 C.3     1  UNL1        0.0000
      2 C           5.8625    1.6000    1.4691 C.2     1  UNL1        0.0000
      3 C           6.5020    1.2815    0.3202 C.2     1  UNL1        0.0000
      4 C           5.5748    0.7073   -0.5834 C.ar    1  UNL1        0.0000
      5 C           5.6221    0.2058   -1.8468 C.ar    1  UNL1        0.0000
      6 S           4.0481   -0.3407   -2.3052 S.2     1  UNL1        0.0000
      7 C           3.3330    0.1203   -0.7862 C.ar    1  UNL1        0.0000
      8 C           4.2998    0.6646    0.0237 C.ar    1  UNL1        0.0000
      9 C           1.9445   -0.1041   -0.5318 C.ar    1  UNL1        0.0000
     10 C           1.0801    0.8037   -1.0377 C.ar    1  UNL1        0.0000
     11 C          -0.3233    0.6315   -0.8197 C.ar    1  UNL1        0.0000
     12 S          -1.4302    1.7863   -1.4093 S.2     1  UNL1        0.0000
     13 C          -2.7997    0.8541   -0.9355 C.ar    1  UNL1        0.0000
     14 C          -4.1615    1.1503   -1.1186 C.ar    1  UNL1        0.0000
     15 SI         -4.9230    2.6739   -1.8670 Si      1  UNL1        0.0000
     16 C          -6.6239    1.8975   -1.5788 C.2     1  UNL1        0.0000
     17 C          -6.5589    0.6791   -1.0097 C.2     1  UNL1        0.0000
     18 C          -5.1824    0.2531   -0.7494 C.ar    1  UNL1        0.0000
     19 C          -4.7913   -0.9794   -0.2130 C.ar    1  UNL1        0.0000
     20 N          -5.6007   -1.9949    0.1517 N.ar    1  UNL1        0.0000
     21 S          -4.6130   -3.2421    0.6497 S.2     1  UNL1        0.0000
     22 N          -3.1147   -2.5395    0.4493 N.ar    1  UNL1        0.0000
     23 C          -3.3841   -1.3202    0.0114 C.ar    1  UNL1        0.0000
     24 C          -2.3638   -0.3262   -0.3255 C.ar    1  UNL1        0.0000
     25 C          -0.9490   -0.4114   -0.1355 C.ar    1  UNL1        0.0000
     26 C          -0.0680   -1.3330    0.5485 C.ar    1  UNL1        0.0000
     27 C          -0.3548   -2.2582    1.4844 C.2     1  UNL1        0.0000
     28 SI          1.1518   -3.2030    2.0368 Si      1  UNL1        0.0000
     29 C           2.1718   -2.0927    0.9524 C.2     1  UNL1        0.0000
     30 C           1.4054   -1.1922    0.2999 C.ar    1  UNL1        0.0000
     31 H           4.1209    0.4951    2.1633 H       1  UNL1        0.0000
     32 H           3.7508    2.1270    1.5055 H       1  UNL1        0.0000
     33 H           6.3235    2.0533    2.3340 H       1  UNL1        0.0000
     34 H           7.5518    1.4362    0.1148 H       1  UNL1        0.0000
     35 H           6.4591    0.1194   -2.5247 H       1  UNL1        0.0000
     36 H           1.4296    1.6473   -1.6275 H       1  UNL1        0.0000
     37 H          -4.6380    2.8259   -3.3149 H       1  UNL1        0.0000
     38 H          -4.7386    3.8907   -1.0384 H       1  UNL1        0.0000
     39 H          -7.5214    2.4239   -1.8660 H       1  UNL1        0.0000
     40 H          -7.4089    0.0567   -0.7622 H       1  UNL1        0.0000
     41 H          -1.3052   -2.4957    1.9248 H       1  UNL1        0.0000
     42 H           1.1531   -4.6117    1.5747 H       1  UNL1        0.0000
     43 H           1.4469   -3.0042    3.4765 H       1  UNL1        0.0000
     44 H           3.2478   -2.1706    0.9345 H       1  UNL1        0.0000
@<TRIPOS>BOND
     1     1     2    1
     2     2     3    2
     3     3     4    1
     4     4     5   ar
     5     5     6   ar
     6     6     7   ar
     7     7     8   ar
     8     7     9    1
     9     9    10   ar
    10    10    11   ar
    11    11    12   ar
    12    12    13   ar
    13    13    14   ar
    14    14    15    1
    15    15    16    1
    16    16    17    2
    17    17    18    1
    18    18    19   ar
    19    19    20   ar
    20    20    21   ar
    21    21    22   ar
    22    22    23   ar
    23    23    24   ar
    24    24    25   ar
    25    25    26   ar
    26    26    27    2
    27    27    28    1
    28    28    29    1
    29    29    30    2
    30     8     1    1
    31    30     9   ar
    32     8     4   ar
    33    25    11   ar
    34    30    26   ar
    35    24    13   ar
    36    18    14   ar
    37    23    19   ar
    38     1    31    1
    39     1    32    1
    40     2    33    1
    41     3    34    1
    42     5    35    1
    43    10    36    1
    44    15    37    1
    45    15    38    1
    46    16    39    1
    47    17    40    1
    48    27    41    1
    49    28    42    1
    50    28    43    1
    51    29    44    1
