@<TRIPOS>MOLECULE
*****
 42 48 0 0 0
SMALL
GASTEIGER

@<TRIPOS>ATOM
      1 C           5.2865    0.2855   -1.3620 C.3     1  UNL1       -0.0075
      2 C           6.7421   -0.1416   -1.5794 C.2     1  UNL1       -0.0791
      3 C           7.1003   -1.1245   -0.7220 C.2     1  UNL1       -0.0574
      4 C           5.9966   -1.4433    0.1061 C.ar    1  UNL1       -0.0142
      5 C           5.7565   -2.3231    1.1153 C.ar    1  UNL1       -0.0163
      6 S           4.1257   -2.1417    1.6540 S.2     1  UNL1       -0.0957
      7 C           3.7794   -0.8811    0.5110 C.ar    1  UNL1        0.0249
      8 C           4.8984   -0.6232   -0.2422 C.ar    1  UNL1       -0.0217
      9 C           2.4581   -0.2555    0.4753 C.ar    1  UNL1        0.0091
     10 C           2.3300    1.1346    0.4883 C.ar    1  UNL1        0.0366
     11 N           1.1728    1.8377    0.4359 N.ar    1  UNL1       -0.2522
     12 C           0.0524    1.0742    0.3713 C.ar    1  UNL1        0.0962
     13 C           0.0842   -0.3118    0.3562 C.ar    1  UNL1        0.0666
     14 C           1.2879   -1.0192    0.4059 C.ar    1  UNL1       -0.0266
     15 N          -1.2188   -0.7377    0.2854 N.ar    1  UNL1       -0.3524
     16 C          -2.1022    0.3217    0.2527 C.ar    1  UNL1        0.0574
     17 C          -1.3114    1.4786    0.3072 C.ar    1  UNL1        0.0263
     18 C          -1.9338    2.7406    0.2910 C.ar    1  UNL1       -0.0499
     19 C          -3.3270    2.8332    0.2212 C.ar    1  UNL1       -0.0533
     20 C          -4.1345    1.6966    0.1659 C.ar    1  UNL1       -0.0153
     21 C          -5.5567    1.8690    0.0954 C.ar    1  UNL1       -0.0534
     22 C          -6.4961    0.8200    0.0344 C.ar    1  UNL1       -0.0529
     23 C          -5.8826   -0.4280    0.0501 C.ar    1  UNL1       -0.0102
     24 C          -6.6226   -1.5834   -0.0021 C.ar    1  UNL1       -0.0166
     25 S          -5.6135   -2.9658    0.0320 S.2     1  UNL1       -0.1039
     26 C          -4.1858   -2.0057    0.1171 C.ar    1  UNL1       -0.0160
     27 C          -4.4522   -0.6556    0.1204 C.ar    1  UNL1       -0.0012
     28 C          -3.5092    0.3971    0.1817 C.ar    1  UNL1        0.0143
     29 H           4.6894    0.1029   -2.2597 H       1  UNL1        0.0356
     30 H           5.2333    1.3383   -1.0718 H       1  UNL1        0.0356
     31 H           7.3854    0.2982   -2.3270 H       1  UNL1        0.0575
     32 H           8.0703   -1.5985   -0.6706 H       1  UNL1        0.0621
     33 H           6.4146   -3.0512    1.5676 H       1  UNL1        0.0699
     34 H           3.2144    1.7653    0.5549 H       1  UNL1        0.0836
     35 H           1.3095   -2.1032    0.3810 H       1  UNL1        0.0645
     36 H          -1.4756   -1.7096    0.2627 H       1  UNL1        0.1660
     37 H          -1.3252    3.6406    0.3337 H       1  UNL1        0.0625
     38 H          -3.7705    3.8274    0.2113 H       1  UNL1        0.0624
     39 H          -5.9573    2.8850    0.0878 H       1  UNL1        0.0624
     40 H          -7.5626    0.9952   -0.0178 H       1  UNL1        0.0624
     41 H          -7.6964   -1.6990   -0.0583 H       1  UNL1        0.0699
     42 H          -3.2538   -2.5389    0.1582 H       1  UNL1        0.0700
@<TRIPOS>BOND
     1     1     2    1
     2     2     3    2
     3     3     4    1
     4     4     5   ar
     5     5     6   ar
     6     6     7   ar
     7     7     8   ar
     8     7     9    1
     9     9    10   ar
    10    10    11   ar
    11    11    12   ar
    12    12    13   ar
    13    13    14   ar
    14    13    15   ar
    15    15    16   ar
    16    16    17   ar
    17    17    18   ar
    18    18    19   ar
    19    19    20   ar
    20    20    21   ar
    21    21    22   ar
    22    22    23   ar
    23    23    24   ar
    24    24    25   ar
    25    25    26   ar
    26    26    27   ar
    27    27    28   ar
    28     8     1    1
    29    14     9   ar
    30    28    16   ar
    31     8     4   ar
    32    17    12   ar
    33    28    20   ar
    34    27    23   ar
    35     1    29    1
    36     1    30    1
    37     2    31    1
    38     3    32    1
    39     5    33    1
    40    10    34    1
    41    14    35    1
    42    15    36    1
    43    18    37    1
    44    19    38    1
    45    21    39    1
    46    22    40    1
    47    24    41    1
    48    26    42    1
