@<TRIPOS>MOLECULE
*****
 33 38 0 0 0
SMALL
GASTEIGER

@<TRIPOS>ATOM
      1 C          -3.3907    1.5994   -0.2940 C.3     1  UNL1       -0.0075
      2 C          -4.8772    1.9714   -0.2764 C.2     1  UNL1       -0.0791
      3 C          -5.6609    0.8692   -0.2954 C.2     1  UNL1       -0.0574
      4 C          -4.8395   -0.2840   -0.3287 C.ar    1  UNL1       -0.0142
      5 C          -5.0466   -1.6278   -0.3637 C.ar    1  UNL1       -0.0163
      6 S          -3.5226   -2.4384   -0.3984 S.2     1  UNL1       -0.0957
      7 C          -2.6162   -0.9571   -0.3736 C.ar    1  UNL1        0.0249
      8 C          -3.4809    0.1090   -0.3274 C.ar    1  UNL1       -0.0217
      9 C          -1.1525   -0.9812   -0.3772 C.ar    1  UNL1        0.0106
     10 C          -0.4333   -1.7607   -1.3024 C.ar    1  UNL1        0.0368
     11 N           0.9222   -1.8523   -1.4125 N.ar    1  UNL1       -0.2491
     12 C           1.5599   -1.0875   -0.5063 C.ar    1  UNL1        0.1329
     13 C           0.9481   -0.2735    0.4548 C.ar    1  UNL1        0.1567
     14 C          -0.4370   -0.1980    0.5437 C.ar    1  UNL1       -0.0075
     15 O           1.8611    0.3956    1.2444 O.2     1  UNL1       -0.4479
     16 C           3.0135   -0.0456    0.7257 C.ar    1  UNL1        0.1979
     17 C           2.9330   -0.9131   -0.2991 C.ar    1  UNL1        0.1156
     18 N           4.2384   -1.1945   -0.6306 N.ar    1  UNL1       -0.3473
     19 C           5.0891   -0.4943    0.1948 C.ar    1  UNL1        0.0893
     20 C           6.4015   -0.1610    0.5872 C.ar    1  UNL1        0.0003
     21 C           6.2020    0.7314    1.6391 C.ar    1  UNL1        0.0948
     22 O           4.8745    0.9700    1.9206 O.2     1  UNL1       -0.4576
     23 C           4.2804    0.1982    1.0124 C.ar    1  UNL1        0.1949
     24 H          -2.8936    1.9595    0.6107 H       1  UNL1        0.0356
     25 H          -2.9007    1.9974   -1.1869 H       1  UNL1        0.0356
     26 H          -5.2350    2.9900   -0.2508 H       1  UNL1        0.0575
     27 H          -6.7417    0.8596   -0.2883 H       1  UNL1        0.0621
     28 H          -5.9735   -2.1833   -0.3710 H       1  UNL1        0.0699
     29 H          -0.9636   -2.3649   -2.0376 H       1  UNL1        0.0836
     30 H          -0.9163    0.4195    1.2924 H       1  UNL1        0.0662
     31 H           4.5197   -1.8235   -1.3716 H       1  UNL1        0.1662
     32 H           7.3475   -0.4976    0.1902 H       1  UNL1        0.0670
     33 H           6.8907    1.2716    2.2758 H       1  UNL1        0.1030
@<TRIPOS>BOND
     1     1     2    1
     2     2     3    2
     3     3     4    1
     4     4     5   ar
     5     5     6   ar
     6     6     7   ar
     7     7     8   ar
     8     7     9    1
     9     9    10   ar
    10    10    11   ar
    11    11    12   ar
    12    12    13   ar
    13    13    14   ar
    14    13    15   ar
    15    15    16   ar
    16    16    17   ar
    17    17    18   ar
    18    18    19   ar
    19    19    20   ar
    20    20    21   ar
    21    21    22   ar
    22    22    23   ar
    23     8     1    1
    24    14     9   ar
    25    23    16   ar
    26     8     4   ar
    27    17    12   ar
    28    23    19   ar
    29     1    24    1
    30     1    25    1
    31     2    26    1
    32     3    27    1
    33     5    28    1
    34    10    29    1
    35    14    30    1
    36    18    31    1
    37    20    32    1
    38    21    33    1
