@<TRIPOS>MOLECULE
*****
 44 51 0 0 0
SMALL
GASTEIGER

@<TRIPOS>ATOM
      1 SI         -2.1282   -4.2539    1.7946 Si      1  UNL1        0.0000
      2 C          -0.7309   -3.0847    1.4018 C.2     1  UNL1        0.0000
      3 C          -1.1699   -1.9242    0.8777 C.ar    1  UNL1        0.0000
      4 C          -0.3870   -0.8100    0.4316 C.ar    1  UNL1        0.0000
      5 C          -1.0166    0.1292   -0.3736 C.ar    1  UNL1        0.0000
      6 O          -0.1527    1.0617   -0.8487 O.2     1  UNL1        0.0000
      7 C           1.0616    0.7794   -0.2854 C.ar    1  UNL1        0.0000
      8 C           2.2417    1.5069   -0.5201 C.ar    1  UNL1        0.0000
      9 C           3.4200    1.1540    0.1675 C.ar    1  UNL1        0.0000
     10 C           4.6682    1.8726   -0.0112 C.ar    1  UNL1        0.0000
     11 C           5.3670    2.6803    0.8667 C.ar    1  UNL1        0.0000
     12 N           6.5462    3.2177    0.3859 N.ar    1  UNL1        0.0000
     13 C           6.7225    2.8228   -0.8555 C.ar    1  UNL1        0.0000
     14 S           5.5102    1.7994   -1.5059 S.2     1  UNL1        0.0000
     15 C           3.2625    0.0975    1.0861 C.ar    1  UNL1        0.0000
     16 C           4.2797   -0.3777    1.8903 C.ar    1  UNL1        0.0000
     17 S           3.7440   -1.6059    2.9745 S.2     1  UNL1        0.0000
     18 C           2.1348   -1.5384    2.3695 C.ar    1  UNL1        0.0000
     19 C           2.0684   -0.6466    1.3408 C.ar    1  UNL1        0.0000
     20 C           0.9148   -0.3105    0.5600 C.ar    1  UNL1        0.0000
     21 C          -2.4191    0.1909   -0.6979 C.ar    1  UNL1        0.0000
     22 C          -3.0819    1.1617   -1.4449 C.ar    1  UNL1        0.0000
     23 C          -2.5872    2.2647   -2.0911 C.ar    1  UNL1        0.0000
     24 O          -3.6099    2.9440   -2.6987 O.2     1  UNL1        0.0000
     25 C          -4.7700    2.2685   -2.4334 C.ar    1  UNL1        0.0000
     26 C          -4.4904    1.1703   -1.6663 C.ar    1  UNL1        0.0000
     27 C          -5.3973    0.2381   -1.1809 C.ar    1  UNL1        0.0000
     28 C          -4.7353   -0.7599   -0.4177 C.ar    1  UNL1        0.0000
     29 C          -3.3093   -0.8053   -0.1760 C.ar    1  UNL1        0.0000
     30 C          -2.6570   -1.9093    0.6098 C.ar    1  UNL1        0.0000
     31 C          -3.3015   -3.0156    1.0407 C.2     1  UNL1        0.0000
     32 H          -2.0532   -5.5102    1.0123 H       1  UNL1        0.0000
     33 H          -2.3354   -4.4144    3.2533 H       1  UNL1        0.0000
     34 H           0.2832   -3.4008    1.5642 H       1  UNL1        0.0000
     35 H           2.2278    2.3394   -1.2175 H       1  UNL1        0.0000
     36 H           5.0593    2.9113    1.8800 H       1  UNL1        0.0000
     37 H           7.5819    3.1233   -1.4406 H       1  UNL1        0.0000
     38 H           5.3160   -0.0713    1.9351 H       1  UNL1        0.0000
     39 H           1.3714   -2.1360    2.8379 H       1  UNL1        0.0000
     40 H          -1.6054    2.6974   -2.2215 H       1  UNL1        0.0000
     41 H          -5.6666    2.7006   -2.8544 H       1  UNL1        0.0000
     42 H          -6.4655    0.2487   -1.3464 H       1  UNL1        0.0000
     43 H          -5.3675   -1.5379    0.0081 H       1  UNL1        0.0000
     44 H          -4.3435   -3.2679    0.9381 H       1  UNL1        0.0000
@<TRIPOS>BOND
     1     1     2    1
     2     2     3    2
     3     3     4   ar
     4     4     5   ar
     5     5     6   ar
     6     6     7   ar
     7     7     8   ar
     8     8     9   ar
     9     9    10    1
    10    10    11   ar
    11    11    12   ar
    12    12    13   ar
    13    13    14   ar
    14     9    15   ar
    15    15    16   ar
    16    16    17   ar
    17    17    18   ar
    18    18    19   ar
    19    19    20   ar
    20     5    21   ar
    21    21    22   ar
    22    22    23   ar
    23    23    24   ar
    24    24    25   ar
    25    25    26   ar
    26    26    27   ar
    27    27    28   ar
    28    28    29   ar
    29    29    30   ar
    30    30    31    2
    31    31     1    1
    32    30     3   ar
    33    20     4   ar
    34    29    21   ar
    35    20     7   ar
    36    26    22   ar
    37    14    10   ar
    38    19    15   ar
    39     1    32    1
    40     1    33    1
    41     2    34    1
    42     8    35    1
    43    11    36    1
    44    13    37    1
    45    16    38    1
    46    18    39    1
    47    23    40    1
    48    25    41    1
    49    27    42    1
    50    28    43    1
    51    31    44    1
