@<TRIPOS>MOLECULE
*****
 44 50 0 0 0
SMALL
GASTEIGER

@<TRIPOS>ATOM
      1 C          -5.6467    1.4671    0.1501 C.3     1  UNL1       -0.0075
      2 C          -7.1712    1.5532    0.2770 C.2     1  UNL1       -0.0791
      3 C          -7.7326    0.3231    0.3121 C.2     1  UNL1       -0.0574
      4 C          -6.7130   -0.6554    0.2202 C.ar    1  UNL1       -0.0142
      5 C          -6.6636   -2.0148    0.2124 C.ar    1  UNL1       -0.0163
      6 S          -5.0191   -2.5248    0.0782 S.2     1  UNL1       -0.0957
      7 C          -4.4109   -0.8996    0.0383 C.ar    1  UNL1        0.0249
      8 C          -5.4568   -0.0137    0.1190 C.ar    1  UNL1       -0.0217
      9 C          -2.9773   -0.6503   -0.0905 C.ar    1  UNL1        0.0091
     10 C          -2.4912    0.2163   -1.0709 C.ar    1  UNL1        0.0367
     11 N          -1.1841    0.5160   -1.2454 N.ar    1  UNL1       -0.2507
     12 C          -0.3403   -0.1022   -0.3808 C.ar    1  UNL1        0.1130
     13 C           1.0174    0.1730   -0.5218 C.ar    1  UNL1        0.0768
     14 N           1.6570    0.9852   -1.4183 N.ar    1  UNL1       -0.3524
     15 C           3.0132    0.9741   -1.2104 C.ar    1  UNL1        0.0482
     16 C           4.0087    1.6638   -1.9061 C.ar    1  UNL1       -0.0372
     17 C           5.3302    1.4857   -1.5005 C.ar    1  UNL1       -0.0521
     18 C           5.6607    0.6464   -0.4336 C.ar    1  UNL1       -0.0172
     19 C           7.0025    0.4897   -0.0512 C.ar    1  UNL1       -0.0540
     20 C           7.3539   -0.3431    1.0105 C.ar    1  UNL1       -0.0612
     21 C           6.3677   -1.0319    1.7060 C.ar    1  UNL1       -0.0611
     22 C           5.0261   -0.8909    1.3427 C.ar    1  UNL1       -0.0534
     23 C           4.6430   -0.0535    0.2710 C.ar    1  UNL1       -0.0081
     24 C           3.2729    0.1178   -0.1331 C.ar    1  UNL1        0.0166
     25 C           1.9891   -0.3923    0.3027 C.ar    1  UNL1        0.0282
     26 C           1.5469   -1.2699    1.3053 C.ar    1  UNL1        0.0381
     27 N           0.2254   -1.5559    1.4647 N.ar    1  UNL1       -0.2527
     28 C          -0.6836   -0.9910    0.6468 C.ar    1  UNL1        0.0918
     29 C          -2.0412   -1.2490    0.7687 C.ar    1  UNL1       -0.0245
     30 H          -5.1579    1.9219    1.0162 H       1  UNL1        0.0356
     31 H          -5.3092    1.9419   -0.7752 H       1  UNL1        0.0356
     32 H          -7.7121    2.4863    0.3317 H       1  UNL1        0.0575
     33 H          -8.7887    0.1103    0.3993 H       1  UNL1        0.0621
     34 H          -7.4663   -2.7355    0.2770 H       1  UNL1        0.0699
     35 H          -3.1635    0.7027   -1.7735 H       1  UNL1        0.0836
     36 H           1.1732    1.5133   -2.1316 H       1  UNL1        0.1660
     37 H           3.7697    2.3197   -2.7377 H       1  UNL1        0.0638
     38 H           6.1110    2.0203   -2.0387 H       1  UNL1        0.0624
     39 H           7.7915    1.0190   -0.5814 H       1  UNL1        0.0624
     40 H           8.3976   -0.4528    1.2928 H       1  UNL1        0.0618
     41 H           6.6397   -1.6818    2.5339 H       1  UNL1        0.0618
     42 H           4.2941   -1.4472    1.9132 H       1  UNL1        0.0624
     43 H           2.2059   -1.7683    2.0042 H       1  UNL1        0.0836
     44 H          -2.3678   -1.9230    1.5567 H       1  UNL1        0.0646
@<TRIPOS>BOND
     1     1     2    1
     2     2     3    2
     3     3     4    1
     4     4     5   ar
     5     5     6   ar
     6     6     7   ar
     7     7     8   ar
     8     7     9    1
     9     9    10   ar
    10    10    11   ar
    11    11    12   ar
    12    12    13   ar
    13    13    14   ar
    14    14    15   ar
    15    15    16   ar
    16    16    17   ar
    17    17    18   ar
    18    18    19   ar
    19    19    20   ar
    20    20    21   ar
    21    21    22   ar
    22    22    23   ar
    23    23    24   ar
    24    24    25   ar
    25    25    26   ar
    26    26    27   ar
    27    27    28   ar
    28    28    29   ar
    29     8     1    1
    30    29     9   ar
    31     8     4   ar
    32    28    12   ar
    33    25    13   ar
    34    24    15   ar
    35    23    18   ar
    36     1    30    1
    37     1    31    1
    38     2    32    1
    39     3    33    1
    40     5    34    1
    41    10    35    1
    42    14    36    1
    43    16    37    1
    44    17    38    1
    45    19    39    1
    46    20    40    1
    47    21    41    1
    48    22    42    1
    49    26    43    1
    50    29    44    1
