@<TRIPOS>MOLECULE
*****
 39 45 0 0 0
SMALL
GASTEIGER

@<TRIPOS>ATOM
      1 C          -4.2477    1.6092   -0.1834 C.3     1  UNL1        0.0000
      2 C          -5.7612    1.8430   -0.1326 C.2     1  UNL1        0.0000
      3 C          -6.4240    0.7064    0.1804 C.2     1  UNL1        0.0000
      4 C          -5.4890   -0.3421    0.3595 C.ar    1  UNL1        0.0000
      5 C          -5.5562   -1.6659    0.6614 C.ar    1  UNL1        0.0000
      6 S          -3.9622   -2.3262    0.6910 S.2     1  UNL1        0.0000
      7 C          -3.2070   -0.8035    0.3003 C.ar    1  UNL1        0.0000
      8 C          -1.8031   -0.7111    0.1842 C.2     1  UNL1        0.0000
      9 C          -1.0753   -1.3352   -0.7648 C.2     1  UNL1        0.0000
     10 C           0.3603   -1.0584   -0.6422 C.ar    1  UNL1        0.0000
     11 C           0.7409   -0.2050    0.4291 C.ar    1  UNL1        0.0000
     12 SI         -0.7640    0.3147    1.3786 Si      1  UNL1        0.0000
     13 C           2.0831    0.1234    0.6379 C.ar    1  UNL1        0.0000
     14 N           2.7355    0.9146    1.5856 N.ar    1  UNL1        0.0000
     15 C           4.0605    0.8765    1.3054 C.ar    1  UNL1        0.0000
     16 C           5.1934    1.4546    1.8855 C.2     1  UNL1        0.0000
     17 C           6.2293    1.0184    1.1247 C.2     1  UNL1        0.0000
     18 C           5.7737    0.0924   -0.0364 C.3     1  UNL1        0.0000
     19 C           4.3206    0.0948    0.2152 C.ar    1  UNL1        0.0000
     20 C           3.0922   -0.3731   -0.1984 C.ar    1  UNL1        0.0000
     21 C           2.7734   -1.2373   -1.2968 C.ar    1  UNL1        0.0000
     22 N           3.6878   -1.7327   -2.1168 N.ar    1  UNL1        0.0000
     23 S           2.7577   -2.6461   -3.1738 S.2     1  UNL1        0.0000
     24 N           1.2201   -2.3812   -2.5585 N.ar    1  UNL1        0.0000
     25 C           1.3653   -1.5660   -1.4929 C.ar    1  UNL1        0.0000
     26 C          -4.1812    0.1559    0.1556 C.ar    1  UNL1        0.0000
     27 H          -3.8563    1.8116   -1.1842 H       1  UNL1        0.0000
     28 H          -3.7380    2.2267    0.5611 H       1  UNL1        0.0000
     29 H          -6.2225    2.7997   -0.3274 H       1  UNL1        0.0000
     30 H          -7.4955    0.6029    0.2764 H       1  UNL1        0.0000
     31 H          -6.4188   -2.2862    0.8582 H       1  UNL1        0.0000
     32 H          -1.4656   -1.9734   -1.5473 H       1  UNL1        0.0000
     33 H          -1.0179    1.7754    1.2657 H       1  UNL1        0.0000
     34 H          -0.7525   -0.2023    2.7711 H       1  UNL1        0.0000
     35 H           2.2951    1.4196    2.3425 H       1  UNL1        0.0000
     36 H           5.2365    2.1031    2.7470 H       1  UNL1        0.0000
     37 H           7.2666    1.2724    1.2881 H       1  UNL1        0.0000
     38 H           6.0313    0.5326   -1.0032 H       1  UNL1        0.0000
     39 H           6.2146   -0.9022    0.0691 H       1  UNL1        0.0000
@<TRIPOS>BOND
     1     1     2    1
     2     2     3    2
     3     3     4    1
     4     4     5   ar
     5     5     6   ar
     6     6     7   ar
     7     7     8    1
     8     8     9    2
     9     9    10    1
    10    10    11   ar
    11    11    12    1
    12    11    13   ar
    13    13    14   ar
    14    14    15   ar
    15    15    16    1
    16    16    17    2
    17    17    18    1
    18    18    19    1
    19    19    20   ar
    20    20    21   ar
    21    21    22   ar
    22    22    23   ar
    23    23    24   ar
    24    24    25   ar
    25     7    26   ar
    26    26     1    1
    27    26     4   ar
    28    12     8    1
    29    20    13   ar
    30    25    21   ar
    31    25    10   ar
    32    19    15   ar
    33     1    27    1
    34     1    28    1
    35     2    29    1
    36     3    30    1
    37     5    31    1
    38     9    32    1
    39    12    33    1
    40    12    34    1
    41    14    35    1
    42    16    36    1
    43    17    37    1
    44    18    38    1
    45    18    39    1
