@<TRIPOS>MOLECULE
*****
 49 56 0 0 0
SMALL
GASTEIGER

@<TRIPOS>ATOM
      1 C           5.1729   -0.5416   -0.9673 C.3     1  UNL1        0.0000
      2 C           6.6966   -0.4424   -1.0964 C.2     1  UNL1        0.0000
      3 C           7.1554    0.7326   -0.6090 C.2     1  UNL1        0.0000
      4 C           6.0617    1.4975   -0.1351 C.ar    1  UNL1        0.0000
      5 C           5.9038    2.7197    0.4371 C.ar    1  UNL1        0.0000
      6 S           4.2297    2.9913    0.7467 S.2     1  UNL1        0.0000
      7 C           3.7382    1.4485    0.0904 C.ar    1  UNL1        0.0000
      8 C           2.3792    1.0498    0.0692 C.2     1  UNL1        0.0000
      9 C           1.9589   -0.1674    0.4587 C.2     1  UNL1        0.0000
     10 C           0.4965   -0.4122    0.3251 C.ar    1  UNL1        0.0000
     11 C          -0.2309    0.6821   -0.2064 C.ar    1  UNL1        0.0000
     12 SI          0.9859    2.0967   -0.5556 Si      1  UNL1        0.0000
     13 C          -1.6437    0.6276   -0.3428 C.ar    1  UNL1        0.0000
     14 C          -2.5156    1.6037   -0.9151 C.ar    1  UNL1        0.0000
     15 C          -2.2106    2.7538   -1.6057 C.ar    1  UNL1        0.0000
     16 O          -3.3484    3.3998   -1.9954 O.2     1  UNL1        0.0000
     17 C          -4.4005    2.6568   -1.5597 C.ar    1  UNL1        0.0000
     18 C          -3.9378    1.5417   -0.9088 C.ar    1  UNL1        0.0000
     19 C          -4.7097    0.5516   -0.2905 C.ar    1  UNL1        0.0000
     20 C          -6.1198    0.5583   -0.2004 C.ar    1  UNL1        0.0000
     21 C          -6.7151   -0.4327    0.5436 C.ar    1  UNL1        0.0000
     22 N          -6.0147   -1.3677    1.2037 N.ar    1  UNL1        0.0000
     23 C          -4.6563   -1.3331    1.0760 C.ar    1  UNL1        0.0000
     24 C          -3.8834   -0.4578    0.2885 C.ar    1  UNL1        0.0000
     25 C          -2.3789   -0.5198    0.1418 C.ar    1  UNL1        0.0000
     26 C          -1.5735   -1.6945    0.4630 C.ar    1  UNL1        0.0000
     27 C          -2.1245   -3.0008    0.5616 C.ar    1  UNL1        0.0000
     28 C          -1.3951   -4.1294    0.9444 C.ar    1  UNL1        0.0000
     29 C          -0.0500   -4.0071    1.2148 C.ar    1  UNL1        0.0000
     30 C           0.5625   -2.7714    1.0371 C.ar    1  UNL1        0.0000
     31 C          -0.1565   -1.6203    0.6216 C.ar    1  UNL1        0.0000
     32 C           4.8630    0.7734   -0.3289 C.ar    1  UNL1        0.0000
     33 H           4.7047   -0.6364   -1.9509 H       1  UNL1        0.0000
     34 H           4.8954   -1.3829   -0.3264 H       1  UNL1        0.0000
     35 H           7.3095   -1.2215   -1.5244 H       1  UNL1        0.0000
     36 H           8.1887    1.0481   -0.5826 H       1  UNL1        0.0000
     37 H           6.6455    3.4629    0.6924 H       1  UNL1        0.0000
     38 H           2.6269   -0.9181    0.8559 H       1  UNL1        0.0000
     39 H           0.6837    3.2828    0.2865 H       1  UNL1        0.0000
     40 H           1.0663    2.3862   -2.0115 H       1  UNL1        0.0000
     41 H          -1.3093    3.2529   -1.9239 H       1  UNL1        0.0000
     42 H          -5.3762    3.0584   -1.7934 H       1  UNL1        0.0000
     43 H          -6.7262    1.3217   -0.6718 H       1  UNL1        0.0000
     44 H          -7.7934   -0.4871    0.6564 H       1  UNL1        0.0000
     45 H          -4.1816   -2.0609    1.7295 H       1  UNL1        0.0000
     46 H          -3.1564   -3.1903    0.2741 H       1  UNL1        0.0000
     47 H          -1.8848   -5.0973    1.0134 H       1  UNL1        0.0000
     48 H           0.5334   -4.8713    1.5193 H       1  UNL1        0.0000
     49 H           1.6347   -2.7339    1.2064 H       1  UNL1        0.0000
@<TRIPOS>BOND
     1     1     2    1
     2     2     3    2
     3     3     4    1
     4     4     5   ar
     5     5     6   ar
     6     6     7   ar
     7     7     8    1
     8     8     9    2
     9     9    10    1
    10    10    11   ar
    11    11    12    1
    12    11    13   ar
    13    13    14   ar
    14    14    15   ar
    15    15    16   ar
    16    16    17   ar
    17    17    18   ar
    18    18    19   ar
    19    19    20   ar
    20    20    21   ar
    21    21    22   ar
    22    22    23   ar
    23    23    24   ar
    24    24    25   ar
    25    25    26   ar
    26    26    27   ar
    27    27    28   ar
    28    28    29   ar
    29    29    30   ar
    30    30    31   ar
    31     7    32   ar
    32    32     1    1
    33    32     4   ar
    34    12     8    1
    35    25    13   ar
    36    31    26   ar
    37    31    10   ar
    38    18    14   ar
    39    24    19   ar
    40     1    33    1
    41     1    34    1
    42     2    35    1
    43     3    36    1
    44     5    37    1
    45     9    38    1
    46    12    39    1
    47    12    40    1
    48    15    41    1
    49    17    42    1
    50    20    43    1
    51    21    44    1
    52    23    45    1
    53    27    46    1
    54    28    47    1
    55    29    48    1
    56    30    49    1
