@<TRIPOS>MOLECULE
*****
 45 52 0 0 0
SMALL
GASTEIGER

@<TRIPOS>ATOM
      1 C          -4.9648    0.0652    1.8330 C.3     1  UNL1        0.0000
      2 C          -6.4741    0.1039    2.0945 C.2     1  UNL1        0.0000
      3 C          -7.1616    0.3853    0.9644 C.2     1  UNL1        0.0000
      4 C          -6.2483    0.5565   -0.1044 C.ar    1  UNL1        0.0000
      5 C          -6.3432    0.8551   -1.4272 C.ar    1  UNL1        0.0000
      6 S          -4.7613    0.9171   -2.1129 S.2     1  UNL1        0.0000
      7 C          -3.9732    0.5308   -0.6047 C.ar    1  UNL1        0.0000
      8 C          -2.5660    0.4279   -0.5389 C.2     1  UNL1        0.0000
      9 C          -1.7192    1.4445   -0.7888 C.2     1  UNL1        0.0000
     10 C          -0.3232    1.0512   -0.6438 C.ar    1  UNL1        0.0000
     11 C           0.0048   -0.2870   -0.2842 C.ar    1  UNL1        0.0000
     12 SI         -1.6961   -1.1747   -0.0966 Si      1  UNL1        0.0000
     13 C           1.3476   -0.8093   -0.1202 C.ar    1  UNL1        0.0000
     14 C           1.5324   -2.1664    0.1728 C.ar    1  UNL1        0.0000
     15 C           2.7945   -2.7405    0.3363 C.ar    1  UNL1        0.0000
     16 C           3.9632   -1.9893    0.2789 C.ar    1  UNL1        0.0000
     17 C           5.1782   -2.6921    0.5001 C.ar    1  UNL1        0.0000
     18 C           6.4390   -2.0934    0.5370 C.ar    1  UNL1        0.0000
     19 C           6.4405   -0.6991    0.3779 C.ar    1  UNL1        0.0000
     20 N           7.5424    0.0644    0.4342 N.ar    1  UNL1        0.0000
     21 S           7.0378    1.6276    0.2560 S.2     1  UNL1        0.0000
     22 N           5.4123    1.3972    0.0843 N.ar    1  UNL1        0.0000
     23 C           5.1617    0.0785    0.1310 C.ar    1  UNL1        0.0000
     24 C           3.8664   -0.5802    0.0216 C.ar    1  UNL1        0.0000
     25 C           2.5435    0.0079   -0.2573 C.ar    1  UNL1        0.0000
     26 C           2.1579    1.3330   -0.6866 C.ar    1  UNL1        0.0000
     27 C           2.9350    2.3817   -1.1185 C.ar    1  UNL1        0.0000
     28 O           2.1651    3.4597   -1.4591 O.2     1  UNL1        0.0000
     29 C           0.8647    3.0994   -1.2906 C.ar    1  UNL1        0.0000
     30 C           0.8101    1.8034   -0.8556 C.ar    1  UNL1        0.0000
     31 C          -4.9293    0.3701    0.3707 C.ar    1  UNL1        0.0000
     32 H          -4.4486    0.8297    2.4203 H       1  UNL1        0.0000
     33 H          -4.5622   -0.9269    2.0542 H       1  UNL1        0.0000
     34 H          -6.9147   -0.0719    3.0644 H       1  UNL1        0.0000
     35 H          -8.2356    0.4720    0.8804 H       1  UNL1        0.0000
     36 H          -7.2190    1.0449   -2.0309 H       1  UNL1        0.0000
     37 H          -2.0141    2.4482   -1.0626 H       1  UNL1        0.0000
     38 H          -1.8513   -2.2515   -1.1088 H       1  UNL1        0.0000
     39 H          -1.9276   -1.5969    1.3107 H       1  UNL1        0.0000
     40 H           0.6857   -2.8432    0.2663 H       1  UNL1        0.0000
     41 H           2.8339   -3.8111    0.5396 H       1  UNL1        0.0000
     42 H           5.1478   -3.7718    0.6638 H       1  UNL1        0.0000
     43 H           7.3481   -2.6545    0.7130 H       1  UNL1        0.0000
     44 H           3.9862    2.5505   -1.2785 H       1  UNL1        0.0000
     45 H           0.1345    3.8538   -1.5460 H       1  UNL1        0.0000
@<TRIPOS>BOND
     1     1     2    1
     2     2     3    2
     3     3     4    1
     4     4     5   ar
     5     5     6   ar
     6     6     7   ar
     7     7     8    1
     8     8     9    2
     9     9    10    1
    10    10    11   ar
    11    11    12    1
    12    11    13   ar
    13    13    14   ar
    14    14    15   ar
    15    15    16   ar
    16    16    17   ar
    17    17    18   ar
    18    18    19   ar
    19    19    20   ar
    20    20    21   ar
    21    21    22   ar
    22    22    23   ar
    23    23    24   ar
    24    24    25   ar
    25    25    26   ar
    26    26    27   ar
    27    27    28   ar
    28    28    29   ar
    29    29    30   ar
    30     7    31   ar
    31    31     1    1
    32    31     4   ar
    33    12     8    1
    34    25    13   ar
    35    30    26   ar
    36    30    10   ar
    37    24    16   ar
    38    23    19   ar
    39     1    32    1
    40     1    33    1
    41     2    34    1
    42     3    35    1
    43     5    36    1
    44     9    37    1
    45    12    38    1
    46    12    39    1
    47    14    40    1
    48    15    41    1
    49    17    42    1
    50    18    43    1
    51    27    44    1
    52    29    45    1
