@<TRIPOS>MOLECULE
*****
 39 44 0 0 0
SMALL
GASTEIGER

@<TRIPOS>ATOM
      1 C           3.9652    1.4848    0.4807 C.3     1  UNL1       -0.0075
      2 C           5.4935    1.5622    0.4270 C.2     1  UNL1       -0.0791
      3 C           6.0238    0.4254   -0.0771 C.2     1  UNL1       -0.0574
      4 C           4.9771   -0.4743   -0.3935 C.ar    1  UNL1       -0.0142
      5 C           4.8985   -1.7270   -0.9116 C.ar    1  UNL1       -0.0163
      6 S           3.2449   -2.1945   -1.0138 S.2     1  UNL1       -0.0961
      7 C           2.6471   -0.6890   -0.3519 C.ar    1  UNL1        0.0197
      8 C           1.2545   -0.4133   -0.1592 C.2     1  UNL1       -0.0284
      9 C           0.2777   -1.2950   -0.4600 C.2     1  UNL1       -0.0491
     10 C          -1.0309   -0.7172   -0.1497 C.ar    1  UNL1       -0.0116
     11 C          -0.8171    0.5716    0.3605 C.ar    1  UNL1       -0.0114
     12 C           0.6539    0.8695    0.3962 C.3     1  UNL1        0.0012
     13 C          -1.9119    1.3423    0.7364 C.ar    1  UNL1        0.0512
     14 N          -1.9819    2.6129    1.2556 N.ar    1  UNL1       -0.3604
     15 C          -3.2870    2.9615    1.4727 C.ar    1  UNL1        0.0028
     16 C          -4.0740    1.9001    1.0880 C.ar    1  UNL1       -0.0361
     17 C          -3.2184    0.8574    0.6156 C.ar    1  UNL1        0.0077
     18 C          -3.4242   -0.4610    0.0929 C.ar    1  UNL1       -0.0082
     19 C          -4.7329   -0.9710   -0.0379 C.ar    1  UNL1       -0.0534
     20 C          -4.9480   -2.2524   -0.5451 C.ar    1  UNL1       -0.0611
     21 C          -3.8668   -3.0404   -0.9273 C.ar    1  UNL1       -0.0611
     22 C          -2.5636   -2.5517   -0.8047 C.ar    1  UNL1       -0.0534
     23 C          -2.3138   -1.2600   -0.2954 C.ar    1  UNL1       -0.0098
     24 C           3.7317    0.1174   -0.0767 C.ar    1  UNL1       -0.0220
     25 H           3.6105    1.5698    1.5116 H       1  UNL1        0.0356
     26 H           3.5172    2.2612   -0.1456 H       1  UNL1        0.0356
     27 H           6.0594    2.4217    0.7538 H       1  UNL1        0.0575
     28 H           7.0762    0.2248   -0.2199 H       1  UNL1        0.0621
     29 H           5.6874   -2.3915   -1.2332 H       1  UNL1        0.0699
     30 H           0.3898   -2.2864   -0.8682 H       1  UNL1        0.0627
     31 H           0.9851    1.0507    1.4234 H       1  UNL1        0.0363
     32 H           0.8889    1.7267   -0.2423 H       1  UNL1        0.0363
     33 H          -1.1830    3.2009    1.4476 H       1  UNL1        0.1653
     34 H          -3.5440    3.9300    1.8802 H       1  UNL1        0.0807
     35 H          -5.1542    1.8746    1.1403 H       1  UNL1        0.0639
     36 H          -5.5928   -0.3742    0.2539 H       1  UNL1        0.0624
     37 H          -5.9608   -2.6347   -0.6413 H       1  UNL1        0.0618
     38 H          -4.0350   -4.0389   -1.3225 H       1  UNL1        0.0618
     39 H          -1.7420   -3.1932   -1.1125 H       1  UNL1        0.0624
@<TRIPOS>BOND
     1     1     2    1
     2     2     3    2
     3     3     4    1
     4     4     5   ar
     5     5     6   ar
     6     6     7   ar
     7     7     8    1
     8     8     9    2
     9     9    10    1
    10    10    11   ar
    11    11    12    1
    12    11    13   ar
    13    13    14   ar
    14    14    15   ar
    15    15    16   ar
    16    16    17   ar
    17    17    18   ar
    18    18    19   ar
    19    19    20   ar
    20    20    21   ar
    21    21    22   ar
    22    22    23   ar
    23     7    24   ar
    24    24     1    1
    25    24     4   ar
    26    12     8    1
    27    17    13   ar
    28    23    18   ar
    29    23    10   ar
    30     1    25    1
    31     1    26    1
    32     2    27    1
    33     3    28    1
    34     5    29    1
    35     9    30    1
    36    12    31    1
    37    12    32    1
    38    14    33    1
    39    15    34    1
    40    16    35    1
    41    19    36    1
    42    20    37    1
    43    21    38    1
    44    22    39    1
