@<TRIPOS>MOLECULE
*****
 50 57 0 0 0
SMALL
GASTEIGER

@<TRIPOS>ATOM
      1 C          -6.0520   -0.4320   -0.3321 C.3     1  UNL1       -0.0075
      2 C          -7.4466   -0.3115    0.2880 C.2     1  UNL1       -0.0791
      3 C          -7.3746    0.0600    1.5853 C.2     1  UNL1       -0.0574
      4 C          -6.0148    0.2175    1.9479 C.ar    1  UNL1       -0.0142
      5 C          -5.3521    0.5662    3.0808 C.ar    1  UNL1       -0.0163
      6 S          -3.6593    0.5474    2.7750 S.2     1  UNL1       -0.0961
      7 C          -3.8414    0.0638    1.0999 C.ar    1  UNL1        0.0197
      8 C          -2.6714   -0.1177    0.2952 C.2     1  UNL1       -0.0284
      9 C          -2.7533   -0.4939   -0.9987 C.2     1  UNL1       -0.0491
     10 C          -1.4085   -0.5835   -1.5101 C.ar    1  UNL1       -0.0124
     11 C          -0.4459   -0.2618   -0.5365 C.ar    1  UNL1       -0.0276
     12 C          -1.2074    0.0683    0.7234 C.3     1  UNL1       -0.0002
     13 C           0.9692   -0.2622   -0.7483 C.ar    1  UNL1       -0.0126
     14 C           1.8750    0.0723    0.2782 C.ar    1  UNL1       -0.0454
     15 C           3.2886    0.0858    0.1147 C.ar    1  UNL1       -0.0096
     16 C           3.7903   -0.2613   -1.1647 C.ar    1  UNL1       -0.0167
     17 C           5.1680   -0.2694   -1.3973 C.ar    1  UNL1       -0.0534
     18 C           6.0654    0.0602   -0.3865 C.ar    1  UNL1       -0.0534
     19 C           5.6115    0.4078    0.8872 C.ar    1  UNL1       -0.0173
     20 C           6.5456    0.7353    1.8851 C.ar    1  UNL1       -0.0540
     21 C           6.1343    1.0872    3.1673 C.ar    1  UNL1       -0.0612
     22 C           4.7813    1.1154    3.4661 C.ar    1  UNL1       -0.0611
     23 C           3.8426    0.7915    2.4814 C.ar    1  UNL1       -0.0534
     24 C           4.2196    0.4276    1.1627 C.ar    1  UNL1       -0.0102
     25 C           2.9188   -0.5999   -2.2104 C.ar    1  UNL1       -0.0457
     26 C           1.5202   -0.6052   -2.0212 C.ar    1  UNL1       -0.0088
     27 C           0.5317   -0.9321   -3.0090 C.ar    1  UNL1       -0.0026
     28 C           0.8003   -1.2949   -4.3086 C.ar    1  UNL1       -0.0160
     29 S          -0.6396   -1.6125   -5.1968 S.2     1  UNL1       -0.1038
     30 C          -1.6424   -1.2661   -3.8451 C.ar    1  UNL1       -0.0160
     31 C          -0.8923   -0.9185   -2.7501 C.ar    1  UNL1       -0.0029
     32 C          -5.1884   -0.0663    0.8331 C.ar    1  UNL1       -0.0220
     33 H          -5.9382    0.2731   -1.1603 H       1  UNL1        0.0356
     34 H          -5.8692   -1.4563   -0.6686 H       1  UNL1        0.0356
     35 H          -8.3594   -0.5026   -0.2561 H       1  UNL1        0.0575
     36 H          -8.2139    0.2148    2.2483 H       1  UNL1        0.0621
     37 H          -5.7416    0.8273    4.0542 H       1  UNL1        0.0699
     38 H          -3.6285   -0.7013   -1.5882 H       1  UNL1        0.0627
     39 H          -1.0198    1.1035    1.0260 H       1  UNL1        0.0362
     40 H          -0.9454   -0.6300    1.5249 H       1  UNL1        0.0362
     41 H           1.4577    0.3334    1.2467 H       1  UNL1        0.0630
     42 H           5.5639   -0.5344   -2.3757 H       1  UNL1        0.0624
     43 H           7.1304    0.0417   -0.6088 H       1  UNL1        0.0624
     44 H           7.6118    0.7183    1.6680 H       1  UNL1        0.0624
     45 H           6.8690    1.3376    3.9274 H       1  UNL1        0.0618
     46 H           4.4484    1.3887    4.4640 H       1  UNL1        0.0618
     47 H           2.7971    0.8307    2.7726 H       1  UNL1        0.0624
     48 H           3.3290   -0.8623   -3.1821 H       1  UNL1        0.0630
     49 H           1.7529   -1.3979   -4.8076 H       1  UNL1        0.0700
     50 H          -2.7165   -1.3397   -3.9408 H       1  UNL1        0.0700
@<TRIPOS>BOND
     1     1     2    1
     2     2     3    2
     3     3     4    1
     4     4     5   ar
     5     5     6   ar
     6     6     7   ar
     7     7     8    1
     8     8     9    2
     9     9    10    1
    10    10    11   ar
    11    11    12    1
    12    11    13   ar
    13    13    14   ar
    14    14    15   ar
    15    15    16   ar
    16    16    17   ar
    17    17    18   ar
    18    18    19   ar
    19    19    20   ar
    20    20    21   ar
    21    21    22   ar
    22    22    23   ar
    23    23    24   ar
    24    16    25   ar
    25    25    26   ar
    26    26    27   ar
    27    27    28   ar
    28    28    29   ar
    29    29    30   ar
    30    30    31   ar
    31     7    32   ar
    32    32     1    1
    33    32     4   ar
    34    12     8    1
    35    26    13   ar
    36    31    27   ar
    37    31    10   ar
    38    24    15   ar
    39    24    19   ar
    40     1    33    1
    41     1    34    1
    42     2    35    1
    43     3    36    1
    44     5    37    1
    45     9    38    1
    46    12    39    1
    47    12    40    1
    48    14    41    1
    49    17    42    1
    50    18    43    1
    51    20    44    1
    52    21    45    1
    53    22    46    1
    54    23    47    1
    55    25    48    1
    56    28    49    1
    57    30    50    1
