@<TRIPOS>MOLECULE
*****
 49 56 0 0 0
SMALL
GASTEIGER

@<TRIPOS>ATOM
      1 C           4.6931    0.0661    1.6758 C.3     1  UNL1       -0.0075
      2 C           6.1194    0.1038    2.2308 C.2     1  UNL1       -0.0791
      3 C           7.0177   -0.2884    1.2997 C.2     1  UNL1       -0.0574
      4 C           6.3343   -0.6091    0.1017 C.ar    1  UNL1       -0.0142
      5 C           6.6938   -1.0459   -1.1327 C.ar    1  UNL1       -0.0163
      6 S           5.2836   -1.2205   -2.1045 S.2     1  UNL1       -0.0961
      7 C           4.1938   -0.7005   -0.8384 C.ar    1  UNL1        0.0197
      8 C           2.7750   -0.6144   -1.0114 C.2     1  UNL1       -0.0284
      9 C           2.1495   -0.9308   -2.1593 C.2     1  UNL1       -0.0483
     10 C           0.7282   -0.7250   -1.9724 C.ar    1  UNL1       -0.0025
     11 C          -0.2906   -0.9116   -2.8491 C.ar    1  UNL1        0.0357
     12 N          -1.5624   -0.6657   -2.4959 N.ar    1  UNL1       -0.2537
     13 C          -1.8886   -0.2215   -1.2531 C.ar    1  UNL1        0.0801
     14 C          -0.9013    0.0079   -0.2561 C.ar    1  UNL1        0.0128
     15 C           0.4342   -0.2697   -0.6857 C.ar    1  UNL1       -0.0247
     16 C           1.7562   -0.1670    0.0303 C.3     1  UNL1       -0.0001
     17 C          -1.3137    0.4831    1.0547 C.ar    1  UNL1       -0.0078
     18 C          -0.3995    0.7411    2.1164 C.ar    1  UNL1       -0.0534
     19 C          -0.7720    1.1971    3.3810 C.ar    1  UNL1       -0.0611
     20 C          -2.0994    1.4196    3.6459 C.ar    1  UNL1       -0.0611
     21 C          -3.0333    1.1826    2.6415 C.ar    1  UNL1       -0.0534
     22 C          -2.6940    0.7166    1.3362 C.ar    1  UNL1       -0.0095
     23 C          -3.6926    0.4870    0.3347 C.ar    1  UNL1       -0.0075
     24 C          -5.1142    0.7179    0.5956 C.ar    1  UNL1       -0.0528
     25 C          -6.1942    0.5348   -0.2906 C.ar    1  UNL1       -0.0529
     26 C          -5.7508    0.0843   -1.5165 C.ar    1  UNL1       -0.0102
     27 C          -6.6414   -0.1612   -2.5332 C.ar    1  UNL1       -0.0166
     28 S          -5.8359   -0.7077   -3.9384 S.2     1  UNL1       -0.1039
     29 C          -4.3021   -0.6092   -3.1681 C.ar    1  UNL1       -0.0160
     30 C          -4.3739   -0.1700   -1.8617 C.ar    1  UNL1       -0.0011
     31 C          -3.2583    0.0165   -0.9547 C.ar    1  UNL1        0.0169
     32 C           4.9450   -0.4119    0.2815 C.ar    1  UNL1       -0.0220
     33 H           4.2469    1.0644    1.6891 H       1  UNL1        0.0356
     34 H           4.0769   -0.6380    2.2419 H       1  UNL1        0.0356
     35 H           6.3599    0.4071    3.2389 H       1  UNL1        0.0575
     36 H           8.0879   -0.3507    1.4372 H       1  UNL1        0.0621
     37 H           7.6746   -1.2717   -1.5262 H       1  UNL1        0.0699
     38 H           2.5757   -1.2805   -3.0864 H       1  UNL1        0.0627
     39 H          -0.1361   -1.2624   -3.8626 H       1  UNL1        0.0836
     40 H           1.9650    0.8682    0.3184 H       1  UNL1        0.0362
     41 H           1.7910   -0.8490    0.8859 H       1  UNL1        0.0362
     42 H           0.6632    0.5945    1.9999 H       1  UNL1        0.0624
     43 H          -0.0199    1.3731    4.1450 H       1  UNL1        0.0618
     44 H          -2.4189    1.7747    4.6215 H       1  UNL1        0.0618
     45 H          -4.0615    1.3812    2.9260 H       1  UNL1        0.0624
     46 H          -5.4276    1.0738    1.5753 H       1  UNL1        0.0624
     47 H          -7.2218    0.7303   -0.0158 H       1  UNL1        0.0624
     48 H          -7.7172   -0.0523   -2.5351 H       1  UNL1        0.0699
     49 H          -3.4437   -0.8912   -3.7569 H       1  UNL1        0.0700
@<TRIPOS>BOND
     1     1     2    1
     2     2     3    2
     3     3     4    1
     4     4     5   ar
     5     5     6   ar
     6     6     7   ar
     7     7     8    1
     8     8     9    2
     9     9    10    1
    10    10    11   ar
    11    11    12   ar
    12    12    13   ar
    13    13    14   ar
    14    14    15   ar
    15    15    16    1
    16    14    17   ar
    17    17    18   ar
    18    18    19   ar
    19    19    20   ar
    20    20    21   ar
    21    21    22   ar
    22    22    23   ar
    23    23    24   ar
    24    24    25   ar
    25    25    26   ar
    26    26    27   ar
    27    27    28   ar
    28    28    29   ar
    29    29    30   ar
    30    30    31   ar
    31     7    32   ar
    32    32     1    1
    33    32     4   ar
    34    16     8    1
    35    22    17   ar
    36    31    23   ar
    37    15    10   ar
    38    30    26   ar
    39    31    13   ar
    40     1    33    1
    41     1    34    1
    42     2    35    1
    43     3    36    1
    44     5    37    1
    45     9    38    1
    46    11    39    1
    47    16    40    1
    48    16    41    1
    49    18    42    1
    50    19    43    1
    51    20    44    1
    52    21    45    1
    53    24    46    1
    54    25    47    1
    55    27    48    1
    56    29    49    1
