@<TRIPOS>MOLECULE
*****
 43 49 0 0 0
SMALL
GASTEIGER

@<TRIPOS>ATOM
      1 C          -4.8395    1.3807   -0.0172 C.3     1  UNL1       -0.0075
      2 C          -6.3349    1.7087    0.0222 C.2     1  UNL1       -0.0791
      3 C          -7.0649    0.6271    0.3756 C.2     1  UNL1       -0.0574
      4 C          -6.1948   -0.4681    0.5960 C.ar    1  UNL1       -0.0142
      5 C          -6.3441   -1.7683    0.9585 C.ar    1  UNL1       -0.0163
      6 S          -4.7959   -2.5182    1.0280 S.2     1  UNL1       -0.0961
      7 C          -3.9337   -1.0684    0.5641 C.ar    1  UNL1        0.0197
      8 C          -2.5091   -1.0111    0.4270 C.2     1  UNL1       -0.0284
      9 C          -1.7026   -2.0729    0.6421 C.2     1  UNL1       -0.0483
     10 C          -0.3289   -1.6661    0.4154 C.ar    1  UNL1       -0.0011
     11 C           0.8485   -2.3565    0.4992 C.ar    1  UNL1        0.0358
     12 N           2.0367   -1.7668    0.2395 N.ar    1  UNL1       -0.2522
     13 C           2.0652   -0.4428   -0.1174 C.ar    1  UNL1        0.0978
     14 C           0.8875    0.3318   -0.2237 C.ar    1  UNL1        0.0938
     15 N           0.8480    1.6350   -0.5692 N.ar    1  UNL1       -0.2525
     16 C           2.0217    2.2508   -0.8348 C.ar    1  UNL1        0.0361
     17 C           3.2688    1.6471   -0.7801 C.ar    1  UNL1        0.0029
     18 C           4.4651    2.4062   -1.0861 C.ar    1  UNL1       -0.0519
     19 C           5.7796    1.8918   -1.0611 C.ar    1  UNL1       -0.0520
     20 C           5.7622    0.5556   -0.7017 C.ar    1  UNL1        0.0001
     21 C           6.8697   -0.2437   -0.5827 C.ar    1  UNL1        0.0094
     22 N           6.4209   -1.4915   -0.2100 N.ar    1  UNL1       -0.3659
     23 C           5.0477   -1.4873   -0.0934 C.ar    1  UNL1        0.0101
     24 C           4.6040   -0.2215   -0.3943 C.ar    1  UNL1        0.0092
     25 C           3.2645    0.2607   -0.4086 C.ar    1  UNL1        0.0201
     26 C          -0.2907   -0.3248    0.0531 C.ar    1  UNL1       -0.0070
     27 C          -1.6851    0.2153    0.0281 C.3     1  UNL1        0.0013
     28 C          -4.8580   -0.0631    0.3728 C.ar    1  UNL1       -0.0220
     29 H          -4.4392    1.5249   -1.0245 H       1  UNL1        0.0356
     30 H          -4.2913    1.9905    0.7062 H       1  UNL1        0.0356
     31 H          -6.7367    2.6846   -0.2060 H       1  UNL1        0.0575
     32 H          -8.1404    0.5932    0.4766 H       1  UNL1        0.0621
     33 H          -7.2438   -2.3224    1.1845 H       1  UNL1        0.0699
     34 H          -1.9737   -3.0754    0.9335 H       1  UNL1        0.0627
     35 H           0.8898   -3.4039    0.7760 H       1  UNL1        0.0836
     36 H           1.9172    3.2991   -1.1065 H       1  UNL1        0.0836
     37 H           4.3543    3.4580   -1.3582 H       1  UNL1        0.0624
     38 H           6.6580    2.4761   -1.2929 H       1  UNL1        0.0624
     39 H           7.9251   -0.0553   -0.7237 H       1  UNL1        0.0813
     40 H           7.0106   -2.2967   -0.0450 H       1  UNL1        0.1648
     41 H           4.5238   -2.3893    0.1931 H       1  UNL1        0.0813
     42 H          -1.9552    0.5561   -0.9764 H       1  UNL1        0.0363
     43 H          -1.8065    1.0206    0.7595 H       1  UNL1        0.0363
@<TRIPOS>BOND
     1     1     2    1
     2     2     3    2
     3     3     4    1
     4     4     5   ar
     5     5     6   ar
     6     6     7   ar
     7     7     8    1
     8     8     9    2
     9     9    10    1
    10    10    11   ar
    11    11    12   ar
    12    12    13   ar
    13    13    14   ar
    14    14    15   ar
    15    15    16   ar
    16    16    17   ar
    17    17    18   ar
    18    18    19   ar
    19    19    20   ar
    20    20    21   ar
    21    21    22   ar
    22    22    23   ar
    23    23    24   ar
    24    24    25   ar
    25    14    26   ar
    26    26    27    1
    27     7    28   ar
    28    28     1    1
    29    28     4   ar
    30    27     8    1
    31    26    10   ar
    32    25    13   ar
    33    25    17   ar
    34    24    20   ar
    35     1    29    1
    36     1    30    1
    37     2    31    1
    38     3    32    1
    39     5    33    1
    40     9    34    1
    41    11    35    1
    42    16    36    1
    43    18    37    1
    44    19    38    1
    45    21    39    1
    46    22    40    1
    47    23    41    1
    48    27    42    1
    49    27    43    1
