@<TRIPOS>MOLECULE
*****
 44 51 0 0 0
SMALL
GASTEIGER

@<TRIPOS>ATOM
      1 C           5.3130    1.7451   -0.2328 C.3     1  UNL1       -0.0074
      2 C           6.8417    1.6522   -0.2495 C.2     1  UNL1       -0.0791
      3 C           7.2556    0.3658   -0.2054 C.2     1  UNL1       -0.0574
      4 C           6.1238   -0.4840   -0.1577 C.ar    1  UNL1       -0.0141
      5 C           5.9203   -1.8274   -0.1031 C.ar    1  UNL1       -0.0162
      6 S           4.2247   -2.1438   -0.0684 S.2     1  UNL1       -0.0927
      7 C           3.8000   -0.4595   -0.1278 C.ar    1  UNL1        0.0585
      8 C           2.4190   -0.0431   -0.1256 C.ar    1  UNL1        0.1446
      9 C           1.9171    1.2513   -0.1703 C.ar    1  UNL1        0.0088
     10 C           0.5207    1.0783   -0.1445 C.ar    1  UNL1        0.0867
     11 N          -0.6694    1.7448   -0.1549 N.ar    1  UNL1       -0.3510
     12 C          -1.6996    0.8129   -0.1038 C.ar    1  UNL1        0.0611
     13 C          -1.1494   -0.4732   -0.0598 C.ar    1  UNL1        0.0510
     14 C           0.2420   -0.2333   -0.0884 C.ar    1  UNL1        0.1614
     15 O           1.3863   -0.9613   -0.0749 O.2     1  UNL1       -0.4521
     16 C          -2.0016   -1.6002   -0.0032 C.ar    1  UNL1       -0.0046
     17 C          -1.4119   -2.8823    0.0400 C.ar    1  UNL1       -0.0533
     18 C          -2.2047   -4.0228    0.0964 C.ar    1  UNL1       -0.0611
     19 C          -3.5857   -3.8949    0.1100 C.ar    1  UNL1       -0.0611
     20 C          -4.1770   -2.6256    0.0673 C.ar    1  UNL1       -0.0534
     21 C          -3.4153   -1.4297    0.0091 C.ar    1  UNL1       -0.0093
     22 C          -3.9796   -0.1080   -0.0361 C.ar    1  UNL1       -0.0060
     23 C          -5.3949    0.1441   -0.0270 C.ar    1  UNL1       -0.0512
     24 C          -6.0093    1.4147   -0.0695 C.ar    1  UNL1       -0.0329
     25 C          -5.1409    2.5214   -0.1254 C.ar    1  UNL1        0.1006
     26 N          -5.5198    3.8074   -0.1717 N.ar    1  UNL1       -0.1908
     27 S          -4.1275    4.7050   -0.2265 S.2     1  UNL1        0.1165
     28 N          -2.9833    3.5033   -0.1939 N.ar    1  UNL1       -0.1901
     29 C          -3.6510    2.3320   -0.1380 C.ar    1  UNL1        0.1095
     30 C          -3.0910    1.0149   -0.0930 C.ar    1  UNL1        0.0349
     31 C           4.9443    0.2998   -0.1723 C.ar    1  UNL1       -0.0188
     32 H           4.9701    2.2907    0.6507 H       1  UNL1        0.0356
     33 H           4.9464    2.2215   -1.1464 H       1  UNL1        0.0356
     34 H           7.4910    2.5141   -0.2912 H       1  UNL1        0.0575
     35 H           8.2826    0.0292   -0.2060 H       1  UNL1        0.0621
     36 H           6.6380   -2.6349   -0.0815 H       1  UNL1        0.0699
     37 H           2.4736    2.1740   -0.2147 H       1  UNL1        0.0676
     38 H          -0.7783    2.7517   -0.1937 H       1  UNL1        0.1660
     39 H          -0.3297   -2.9999    0.0300 H       1  UNL1        0.0624
     40 H          -1.7430   -5.0058    0.1294 H       1  UNL1        0.0618
     41 H          -4.2120   -4.7825    0.1540 H       1  UNL1        0.0618
     42 H          -5.2625   -2.5997    0.0810 H       1  UNL1        0.0624
     43 H          -6.0870   -0.6966    0.0159 H       1  UNL1        0.0624
     44 H          -7.0860    1.5344   -0.0597 H       1  UNL1        0.0640
@<TRIPOS>BOND
     1     1     2    1
     2     2     3    2
     3     3     4    1
     4     4     5   ar
     5     5     6   ar
     6     6     7   ar
     7     7     8    1
     8     8     9   ar
     9     9    10   ar
    10    10    11   ar
    11    11    12   ar
    12    12    13   ar
    13    13    14   ar
    14    14    15   ar
    15    13    16   ar
    16    16    17   ar
    17    17    18   ar
    18    18    19   ar
    19    19    20   ar
    20    20    21   ar
    21    21    22   ar
    22    22    23   ar
    23    23    24   ar
    24    24    25   ar
    25    25    26   ar
    26    26    27   ar
    27    27    28   ar
    28    28    29   ar
    29    29    30   ar
    30     7    31   ar
    31    31     1    1
    32    31     4   ar
    33    15     8   ar
    34    21    16   ar
    35    30    22   ar
    36    14    10   ar
    37    29    25   ar
    38    30    12   ar
    39     1    32    1
    40     1    33    1
    41     2    34    1
    42     3    35    1
    43     5    36    1
    44     9    37    1
    45    11    38    1
    46    17    39    1
    47    18    40    1
    48    19    41    1
    49    20    42    1
    50    23    43    1
    51    24    44    1
