@<TRIPOS>MOLECULE
*****
 37 42 0 0 0
SMALL
GASTEIGER

@<TRIPOS>ATOM
      1 C          -4.3431    1.7703    1.7455 C.3     1  UNL1        0.0000
      2 C          -5.7331    1.9640    1.1762 C.2     1  UNL1        0.0000
      3 C          -5.8307    1.5481   -0.0991 C.2     1  UNL1        0.0000
      4 C          -4.5274    1.0424   -0.4978 C.ar    1  UNL1        0.0000
      5 N          -4.2532    0.5427   -1.7122 N.ar    1  UNL1        0.0000
      6 C          -2.9831    0.1071   -1.9350 C.ar    1  UNL1        0.0000
      7 C          -2.0119    0.1851   -0.9259 C.ar    1  UNL1        0.0000
      8 C          -2.3767    0.7201    0.3173 C.ar    1  UNL1        0.0000
      9 O          -1.3261    0.7283    1.1946 O.2     1  UNL1        0.0000
     10 C          -0.2523    0.1956    0.5324 C.ar    1  UNL1        0.0000
     11 C           1.0468    0.0089    1.0541 C.ar    1  UNL1        0.0000
     12 C           2.0571   -0.5494    0.2329 C.ar    1  UNL1        0.0000
     13 C           3.4129   -0.7790    0.6849 C.2     1  UNL1        0.0000
     14 C           3.8142   -1.7199    1.5637 C.2     1  UNL1        0.0000
     15 C           5.2333   -1.7008    1.8841 C.2     1  UNL1        0.0000
     16 C           5.9463   -0.7347    1.2765 C.2     1  UNL1        0.0000
     17 SI          4.8587    0.3223    0.1610 Si      1  UNL1        0.0000
     18 C           1.6063   -0.8817   -1.0530 C.ar    1  UNL1        0.0000
     19 C           2.3100   -1.4751   -2.0772 C.ar    1  UNL1        0.0000
     20 O           1.5077   -1.6374   -3.1817 O.2     1  UNL1        0.0000
     21 C           0.2613   -1.1550   -2.8668 C.ar    1  UNL1        0.0000
     22 C           0.3148   -0.7064   -1.5865 C.ar    1  UNL1        0.0000
     23 C          -0.6664   -0.1304   -0.7444 C.ar    1  UNL1        0.0000
     24 C          -3.6518    1.1667    0.5686 C.ar    1  UNL1        0.0000
     25 H          -4.3581    1.0842    2.5966 H       1  UNL1        0.0000
     26 H          -3.8952    2.7276    2.0255 H       1  UNL1        0.0000
     27 H          -6.5478    2.3908    1.7443 H       1  UNL1        0.0000
     28 H          -6.6908    1.5652   -0.7465 H       1  UNL1        0.0000
     29 H          -2.7852   -0.2924   -2.9228 H       1  UNL1        0.0000
     30 H           1.2607    0.3004    2.0784 H       1  UNL1        0.0000
     31 H           3.1557   -2.4495    2.0203 H       1  UNL1        0.0000
     32 H           5.6584   -2.4236    2.5699 H       1  UNL1        0.0000
     33 H           7.0034   -0.5460    1.3774 H       1  UNL1        0.0000
     34 H           4.7339    1.7145    0.6593 H       1  UNL1        0.0000
     35 H           5.2098    0.1557   -1.2716 H       1  UNL1        0.0000
     36 H           3.3235   -1.8328   -2.1959 H       1  UNL1        0.0000
     37 H          -0.4816   -1.2260   -3.6474 H       1  UNL1        0.0000
@<TRIPOS>BOND
     1     1     2    1
     2     2     3    2
     3     3     4    1
     4     4     5   ar
     5     5     6   ar
     6     6     7   ar
     7     7     8   ar
     8     8     9   ar
     9     9    10   ar
    10    10    11   ar
    11    11    12   ar
    12    12    13    1
    13    13    14    2
    14    14    15    1
    15    15    16    2
    16    16    17    1
    17    12    18   ar
    18    18    19   ar
    19    19    20   ar
    20    20    21   ar
    21    21    22   ar
    22    22    23   ar
    23     8    24   ar
    24    24     1    1
    25    24     4   ar
    26    23     7   ar
    27    23    10   ar
    28    17    13    1
    29    22    18   ar
    30     1    25    1
    31     1    26    1
    32     2    27    1
    33     3    28    1
    34     6    29    1
    35    11    30    1
    36    14    31    1
    37    15    32    1
    38    16    33    1
    39    17    34    1
    40    17    35    1
    41    19    36    1
    42    21    37    1
