@<TRIPOS>MOLECULE
*****
 47 54 0 0 0
SMALL
GASTEIGER

@<TRIPOS>ATOM
      1 SI          1.8364   -4.0492   -0.5310 Si      1  UNL1        0.0000
      2 C           2.8452   -2.5555   -0.0472 C.2     1  UNL1        0.0000
      3 C           2.0979   -1.4375    0.0188 C.ar    1  UNL1        0.0000
      4 C           2.5096   -0.1133    0.3769 C.ar    1  UNL1        0.0000
      5 C           1.5101    0.8054    0.6749 C.ar    1  UNL1        0.0000
      6 O           2.0133    1.9871    1.1223 O.2     1  UNL1        0.0000
      7 C           3.3740    1.8733    1.0497 C.ar    1  UNL1        0.0000
      8 C           4.2869    2.8787    1.4244 C.ar    1  UNL1        0.0000
      9 C           5.6662    2.6652    1.2552 C.ar    1  UNL1        0.0000
     10 C           5.9726    1.4403    0.6608 C.ar    1  UNL1        0.0000
     11 C           7.2719    1.1020    0.3559 C.ar    1  UNL1        0.0000
     12 S           7.3655   -0.4175   -0.4545 S.2     1  UNL1        0.0000
     13 C           5.6546   -0.6325   -0.4073 C.ar    1  UNL1        0.0000
     14 C           5.0796    0.4060    0.2626 C.ar    1  UNL1        0.0000
     15 C           3.6885    0.6254    0.5278 C.ar    1  UNL1        0.0000
     16 C           0.0724    0.6274    0.5409 C.ar    1  UNL1        0.0000
     17 N          -0.7276    1.6779    0.8347 N.ar    1  UNL1        0.0000
     18 C          -2.0534    1.4863    0.6486 C.ar    1  UNL1        0.0000
     19 C          -2.6316    0.3072    0.1718 C.ar    1  UNL1        0.0000
     20 C          -1.7623   -0.7579   -0.1133 C.ar    1  UNL1        0.0000
     21 C          -0.3832   -0.6168    0.0679 C.ar    1  UNL1        0.0000
     22 C           0.6253   -1.6875   -0.1798 C.ar    1  UNL1        0.0000
     23 C           0.3169   -2.9642   -0.4934 C.2     1  UNL1        0.0000
     24 C          -4.0688    0.1752   -0.0052 C.ar    1  UNL1        0.0000
     25 C          -4.8800   -0.8040    0.6337 C.ar    1  UNL1        0.0000
     26 C          -6.3063   -0.9293    0.4577 C.ar    1  UNL1        0.0000
     27 C          -7.0814   -0.0956   -0.3798 C.ar    1  UNL1        0.0000
     28 C          -6.2714    0.8450   -0.9993 C.ar    1  UNL1        0.0000
     29 C          -6.6647    1.8083   -1.8885 C.ar    1  UNL1        0.0000
     30 O          -5.5731    2.5283   -2.2907 O.2     1  UNL1        0.0000
     31 C          -4.4783    2.0148   -1.6486 C.ar    1  UNL1        0.0000
     32 C          -4.8608    0.9812   -0.8306 C.ar    1  UNL1        0.0000
     33 H           1.8123   -5.0848    0.5285 H       1  UNL1        0.0000
     34 H           2.1540   -4.5273   -1.8971 H       1  UNL1        0.0000
     35 H           3.8891   -2.6738    0.1771 H       1  UNL1        0.0000
     36 H           3.9179    3.8139    1.8350 H       1  UNL1        0.0000
     37 H           6.3974    3.4163    1.5287 H       1  UNL1        0.0000
     38 H           8.1786    1.6629    0.5373 H       1  UNL1        0.0000
     39 H           5.2196   -1.4827   -0.9036 H       1  UNL1        0.0000
     40 H          -2.6678    2.3455    0.9102 H       1  UNL1        0.0000
     41 H          -2.1753   -1.6905   -0.4873 H       1  UNL1        0.0000
     42 H          -0.6567   -3.3989   -0.6495 H       1  UNL1        0.0000
     43 H          -4.4020   -1.5083    1.3178 H       1  UNL1        0.0000
     44 H          -6.8166   -1.7196    1.0106 H       1  UNL1        0.0000
     45 H          -8.1495   -0.1990   -0.5065 H       1  UNL1        0.0000
     46 H          -7.6064    2.1066   -2.3269 H       1  UNL1        0.0000
     47 H          -3.5385    2.4920   -1.8897 H       1  UNL1        0.0000
@<TRIPOS>BOND
     1     1     2    1
     2     2     3    2
     3     3     4   ar
     4     4     5   ar
     5     5     6   ar
     6     6     7   ar
     7     7     8   ar
     8     8     9   ar
     9     9    10   ar
    10    10    11   ar
    11    11    12   ar
    12    12    13   ar
    13    13    14   ar
    14    14    15   ar
    15     5    16   ar
    16    16    17   ar
    17    17    18   ar
    18    18    19   ar
    19    19    20   ar
    20    20    21   ar
    21    21    22   ar
    22    22    23    2
    23    19    24    1
    24    24    25   ar
    25    25    26   ar
    26    26    27   ar
    27    27    28   ar
    28    28    29   ar
    29    29    30   ar
    30    30    31   ar
    31    31    32   ar
    32    23     1    1
    33    32    24   ar
    34    22     3   ar
    35    32    28   ar
    36    15     4   ar
    37    21    16   ar
    38    15     7   ar
    39    14    10   ar
    40     1    33    1
    41     1    34    1
    42     2    35    1
    43     8    36    1
    44     9    37    1
    45    11    38    1
    46    13    39    1
    47    18    40    1
    48    20    41    1
    49    23    42    1
    50    25    43    1
    51    26    44    1
    52    27    45    1
    53    29    46    1
    54    31    47    1
