@<TRIPOS>MOLECULE
*****
 33 37 0 0 0
SMALL
GASTEIGER

@<TRIPOS>ATOM
      1 C           3.9387   -1.0945    0.9150 C.3     1  UNL1        0.0000
      2 C           5.3456   -0.6044    0.6534 C.2     1  UNL1        0.0000
      3 C           5.3841    0.3890   -0.2506 C.2     1  UNL1        0.0000
      4 C           4.0188    0.6490   -0.6699 C.ar    1  UNL1        0.0000
      5 N           3.6734    1.5838   -1.5719 N.ar    1  UNL1        0.0000
      6 C           2.3415    1.6642   -1.8242 C.ar    1  UNL1        0.0000
      7 C           1.3871    0.8551   -1.2087 C.ar    1  UNL1        0.0000
      8 C          -0.0651    0.9033   -1.4440 C.2     1  UNL1        0.0000
      9 C          -0.7570    0.0092   -0.7096 C.2     1  UNL1        0.0000
     10 SI          0.3382   -1.0466    0.3952 Si      1  UNL1        0.0000
     11 C           1.8084   -0.1121   -0.2655 C.ar    1  UNL1        0.0000
     12 C           3.1534   -0.2111    0.0033 C.ar    1  UNL1        0.0000
     13 C          -2.1608   -0.1439   -0.7543 C.ar    1  UNL1        0.0000
     14 S          -2.9546   -0.5799   -2.2466 S.2     1  UNL1        0.0000
     15 C          -4.5272   -0.5779   -1.5380 C.ar    1  UNL1        0.0000
     16 C          -4.4269   -0.2518   -0.2223 C.ar    1  UNL1        0.0000
     17 C          -5.3347   -0.0772    0.8505 C.2     1  UNL1        0.0000
     18 C          -4.6468    0.2709    1.9615 C.2     1  UNL1        0.0000
     19 C          -3.1426    0.3526    1.6821 C.3     1  UNL1        0.0000
     20 C          -3.1097   -0.0086    0.2324 C.ar    1  UNL1        0.0000
     21 H           3.8384   -2.1481    0.6391 H       1  UNL1        0.0000
     22 H           3.6630   -0.9387    1.9619 H       1  UNL1        0.0000
     23 H           6.2155   -1.0165    1.1451 H       1  UNL1        0.0000
     24 H           6.2392    0.9236   -0.6272 H       1  UNL1        0.0000
     25 H           2.0580    2.4171   -2.5536 H       1  UNL1        0.0000
     26 H          -0.4986    1.6060   -2.1440 H       1  UNL1        0.0000
     27 H           0.1149   -0.7887    1.8426 H       1  UNL1        0.0000
     28 H           0.3677   -2.4816    0.0128 H       1  UNL1        0.0000
     29 H          -5.4035   -0.8068   -2.1274 H       1  UNL1        0.0000
     30 H          -6.4062   -0.2011    0.7808 H       1  UNL1        0.0000
     31 H          -5.0843    0.4703    2.9283 H       1  UNL1        0.0000
     32 H          -2.5989   -0.3699    2.2966 H       1  UNL1        0.0000
     33 H          -2.7689    1.3653    1.8573 H       1  UNL1        0.0000
@<TRIPOS>BOND
     1     1     2    1
     2     2     3    2
     3     3     4    1
     4     4     5   ar
     5     5     6   ar
     6     6     7   ar
     7     7     8    1
     8     8     9    2
     9     9    10    1
    10    10    11    1
    11    11    12   ar
    12     9    13    1
    13    13    14   ar
    14    14    15   ar
    15    15    16   ar
    16    16    17    1
    17    17    18    2
    18    18    19    1
    19    19    20    1
    20    12     1    1
    21    20    13   ar
    22    12     4   ar
    23    20    16   ar
    24    11     7   ar
    25     1    21    1
    26     1    22    1
    27     2    23    1
    28     3    24    1
    29     6    25    1
    30     8    26    1
    31    10    27    1
    32    10    28    1
    33    15    29    1
    34    17    30    1
    35    18    31    1
    36    19    32    1
    37    19    33    1
