@<TRIPOS>MOLECULE
*****
 32 36 0 0 0
SMALL
GASTEIGER

@<TRIPOS>ATOM
      1 C          -4.0158    1.0925   -0.7503 C.3     1  UNL1       -0.0068
      2 C          -5.3528    0.5196   -0.3305 C.2     1  UNL1       -0.0776
      3 C          -5.2253   -0.5648    0.4537 C.2     1  UNL1       -0.0396
      4 C          -3.8049   -0.8115    0.6267 C.ar    1  UNL1        0.0673
      5 N          -3.2923   -1.8212    1.3552 N.ar    1  UNL1       -0.2547
      6 C          -1.9346   -1.8687    1.3843 C.ar    1  UNL1        0.0357
      7 C          -1.1327   -0.9526    0.7183 C.ar    1  UNL1       -0.0028
      8 C           0.3116   -0.8357    0.6281 C.2     1  UNL1       -0.0482
      9 C           0.6207    0.2292   -0.1436 C.2     1  UNL1       -0.0266
     10 C          -0.6569    0.9192   -0.6379 C.3     1  UNL1       -0.0003
     11 C          -1.7176    0.0740   -0.0223 C.ar    1  UNL1       -0.0290
     12 C          -3.0824    0.1514   -0.0729 C.ar    1  UNL1       -0.0142
     13 C           1.9813    0.6023   -0.4188 C.ar    1  UNL1        0.0431
     14 S           2.2631    1.9964   -1.4314 S.2     1  UNL1       -0.0926
     15 C           3.9625    1.8636   -1.3406 C.ar    1  UNL1        0.0038
     16 C           4.3365    0.7987   -0.5690 C.ar    1  UNL1        0.0968
     17 N           5.6424    0.4834   -0.3445 N.ar    1  UNL1       -0.2514
     18 C           5.7431   -0.6137    0.4515 C.ar    1  UNL1        0.0464
     19 C           4.6607   -1.3284    0.9738 C.ar    1  UNL1        0.0464
     20 N           3.3499   -1.0324    0.7632 N.ar    1  UNL1       -0.2508
     21 C           3.2063    0.0689   -0.0357 C.ar    1  UNL1        0.1036
     22 H          -3.8963    2.1141   -0.3789 H       1  UNL1        0.0356
     23 H          -3.9019    1.0587   -1.8374 H       1  UNL1        0.0356
     24 H          -6.2986    0.9454   -0.6349 H       1  UNL1        0.0576
     25 H          -5.9976   -1.1709    0.8953 H       1  UNL1        0.0636
     26 H          -1.5088   -2.6779    1.9683 H       1  UNL1        0.0836
     27 H           0.9793   -1.5231    1.1229 H       1  UNL1        0.0627
     28 H          -0.7225    0.8908   -1.7301 H       1  UNL1        0.0362
     29 H          -0.7168    1.9480   -0.2693 H       1  UNL1        0.0362
     30 H           4.6046    2.5656   -1.8522 H       1  UNL1        0.0715
     31 H           6.7601   -0.9246    0.6739 H       1  UNL1        0.0845
     32 H           4.8356   -2.1965    1.6034 H       1  UNL1        0.0845
@<TRIPOS>BOND
     1     1     2    1
     2     2     3    2
     3     3     4    1
     4     4     5   ar
     5     5     6   ar
     6     6     7   ar
     7     7     8    1
     8     8     9    2
     9     9    10    1
    10    10    11    1
    11    11    12   ar
    12     9    13    1
    13    13    14   ar
    14    14    15   ar
    15    15    16   ar
    16    16    17   ar
    17    17    18   ar
    18    18    19   ar
    19    19    20   ar
    20    20    21   ar
    21    12     1    1
    22    21    13   ar
    23    12     4   ar
    24    21    16   ar
    25    11     7   ar
    26     1    22    1
    27     1    23    1
    28     2    24    1
    29     3    25    1
    30     6    26    1
    31     8    27    1
    32    10    28    1
    33    10    29    1
    34    15    30    1
    35    18    31    1
    36    19    32    1
