@<TRIPOS>MOLECULE
*****
 32 36 0 0 0
SMALL
GASTEIGER

@<TRIPOS>ATOM
      1 C          -4.5063    0.4530    0.3868 C.3     1  UNL1       -0.0065
      2 C          -5.4404   -0.6226   -0.1201 C.2     1  UNL1       -0.0776
      3 C          -4.7829   -1.6377   -0.7040 C.2     1  UNL1       -0.0396
      4 C          -3.3654   -1.3317   -0.6388 C.ar    1  UNL1        0.0676
      5 N          -2.4068   -2.1278   -1.1271 N.ar    1  UNL1       -0.2546
      6 C          -1.1510   -1.6485   -0.9588 C.ar    1  UNL1        0.0379
      7 C          -0.8352   -0.4233   -0.3301 C.ar    1  UNL1        0.0244
      8 C           0.4948    0.0467   -0.1718 C.ar    1  UNL1        0.0562
      9 N           1.7046   -0.5004   -0.5451 N.ar    1  UNL1       -0.3520
     10 C           2.7479    0.3168   -0.1828 C.ar    1  UNL1        0.0728
     11 C           2.1956    1.4183    0.4397 C.ar    1  UNL1       -0.0266
     12 C           0.7830    1.2613    0.4531 C.ar    1  UNL1        0.0010
     13 C          -0.2766    2.0481    0.9433 C.ar    1  UNL1       -0.0520
     14 C          -1.5974    1.6047    0.7985 C.ar    1  UNL1       -0.0530
     15 C          -1.8849    0.3833    0.1700 C.ar    1  UNL1       -0.0090
     16 C          -3.1749   -0.1072   -0.0019 C.ar    1  UNL1       -0.0105
     17 C           4.1273    0.0185   -0.4355 C.ar    1  UNL1        0.1243
     18 N           5.0913    0.8358   -0.0678 N.ar    1  UNL1       -0.2459
     19 C           6.3156    0.3104   -0.4304 C.ar    1  UNL1        0.0355
     20 C           6.2732   -0.9069   -1.0734 C.ar    1  UNL1       -0.0042
     21 S           4.6450   -1.4165   -1.2324 S.2     1  UNL1       -0.0742
     22 H          -4.5940    0.5615    1.4716 H       1  UNL1        0.0356
     23 H          -4.7029    1.4043   -0.1161 H       1  UNL1        0.0356
     24 H          -6.5150   -0.5682   -0.0175 H       1  UNL1        0.0576
     25 H          -5.1845   -2.5310   -1.1506 H       1  UNL1        0.0636
     26 H          -0.3767   -2.2971   -1.3562 H       1  UNL1        0.0836
     27 H           1.8164   -1.3838   -1.0216 H       1  UNL1        0.1660
     28 H           2.7581    2.2513    0.8433 H       1  UNL1        0.0645
     29 H          -0.0721    2.9965    1.4327 H       1  UNL1        0.0624
     30 H          -2.3987    2.2301    1.1854 H       1  UNL1        0.0624
     31 H           7.2177    0.8636   -0.1986 H       1  UNL1        0.0835
     32 H           7.0951   -1.5014   -1.4451 H       1  UNL1        0.0709
@<TRIPOS>BOND
     1     1     2    1
     2     2     3    2
     3     3     4    1
     4     4     5   ar
     5     5     6   ar
     6     6     7   ar
     7     7     8   ar
     8     8     9   ar
     9     9    10   ar
    10    10    11   ar
    11    11    12   ar
    12    12    13   ar
    13    13    14   ar
    14    14    15   ar
    15    15    16   ar
    16    10    17    1
    17    17    18   ar
    18    18    19   ar
    19    19    20   ar
    20    20    21   ar
    21    16     1    1
    22    21    17   ar
    23    16     4   ar
    24    15     7   ar
    25    12     8   ar
    26     1    22    1
    27     1    23    1
    28     2    24    1
    29     3    25    1
    30     6    26    1
    31     9    27    1
    32    11    28    1
    33    13    29    1
    34    14    30    1
    35    19    31    1
    36    20    32    1
