@<TRIPOS>MOLECULE
*****
 42 47 0 0 0
SMALL
GASTEIGER

@<TRIPOS>ATOM
      1 C           4.8519    0.1815    0.1927 C.3     1  UNL1       -0.0065
      2 C           5.8581   -0.2008    1.2486 C.2     1  UNL1       -0.0776
      3 C           5.2678   -0.6723    2.3532 C.2     1  UNL1       -0.0396
      4 C           3.8388   -0.6393    2.1172 C.ar    1  UNL1        0.0676
      5 N           2.9607   -1.0426    3.0209 N.ar    1  UNL1       -0.2547
      6 C           1.6790   -0.9316    2.6088 C.ar    1  UNL1        0.0366
      7 C           1.2057   -0.4472    1.3570 C.ar    1  UNL1        0.0088
      8 C          -0.1946   -0.3858    1.0514 C.ar    1  UNL1       -0.0081
      9 C          -1.2021   -0.7986    1.9708 C.ar    1  UNL1       -0.0528
     10 C          -2.5689   -0.7494    1.6900 C.ar    1  UNL1       -0.0520
     11 C          -3.0008   -0.2796    0.4646 C.ar    1  UNL1       -0.0011
     12 C          -2.0302    0.1379   -0.4539 C.ar    1  UNL1       -0.0443
     13 C          -0.6228    0.1020   -0.2072 C.ar    1  UNL1       -0.0089
     14 C           0.3458    0.5344   -1.1737 C.ar    1  UNL1       -0.0095
     15 C          -0.0418    1.0330   -2.4521 C.ar    1  UNL1       -0.0534
     16 C           0.8636    1.4622   -3.4178 C.ar    1  UNL1       -0.0611
     17 C           2.2066    1.4083   -3.1374 C.ar    1  UNL1       -0.0611
     18 C           2.6240    0.9264   -1.8962 C.ar    1  UNL1       -0.0534
     19 C           1.7388    0.4758   -0.8756 C.ar    1  UNL1       -0.0092
     20 C           2.1856   -0.0231    0.4108 C.ar    1  UNL1       -0.0027
     21 C           3.5358   -0.1408    0.8490 C.ar    1  UNL1       -0.0100
     22 C          -4.4238   -0.2105    0.1321 C.ar    1  UNL1        0.0465
     23 C          -5.1370    0.7344   -0.5886 C.ar    1  UNL1       -0.0364
     24 C          -6.4926    0.3288   -0.6338 C.ar    1  UNL1       -0.0438
     25 C          -6.5831   -0.8598    0.0505 C.ar    1  UNL1        0.0022
     26 N          -5.3314   -1.1792    0.5067 N.ar    1  UNL1       -0.3607
     27 H           5.0163   -0.4294   -0.6998 H       1  UNL1        0.0356
     28 H           4.9430    1.2504   -0.0218 H       1  UNL1        0.0356
     29 H           6.9262   -0.1010    1.1173 H       1  UNL1        0.0576
     30 H           5.7218   -1.0203    3.2650 H       1  UNL1        0.0636
     31 H           0.9980   -1.2731    3.3818 H       1  UNL1        0.0836
     32 H          -0.9503   -1.1736    2.9587 H       1  UNL1        0.0624
     33 H          -3.2754   -1.0621    2.4540 H       1  UNL1        0.0624
     34 H          -2.4083    0.4931   -1.4077 H       1  UNL1        0.0630
     35 H          -1.0865    1.1034   -2.7397 H       1  UNL1        0.0624
     36 H           0.5112    1.8332   -4.3759 H       1  UNL1        0.0618
     37 H           2.9370    1.7368   -3.8717 H       1  UNL1        0.0618
     38 H           3.6953    0.9199   -1.7621 H       1  UNL1        0.0624
     39 H          -4.7245    1.6336   -1.0282 H       1  UNL1        0.0639
     40 H          -7.3111    0.8480   -1.1153 H       1  UNL1        0.0633
     41 H          -7.4267   -1.5069    0.2495 H       1  UNL1        0.0807
     42 H          -5.0991   -2.0162    1.0239 H       1  UNL1        0.1653
@<TRIPOS>BOND
     1     1     2    1
     2     2     3    2
     3     3     4    1
     4     4     5   ar
     5     5     6   ar
     6     6     7   ar
     7     7     8   ar
     8     8     9   ar
     9     9    10   ar
    10    10    11   ar
    11    11    12   ar
    12    12    13   ar
    13    13    14   ar
    14    14    15   ar
    15    15    16   ar
    16    16    17   ar
    17    17    18   ar
    18    18    19   ar
    19    19    20   ar
    20    20    21   ar
    21    11    22    1
    22    22    23   ar
    23    23    24   ar
    24    24    25   ar
    25    25    26   ar
    26    21     1    1
    27    26    22   ar
    28    21     4   ar
    29    20     7   ar
    30    13     8   ar
    31    19    14   ar
    32     1    27    1
    33     1    28    1
    34     2    29    1
    35     3    30    1
    36     6    31    1
    37     9    32    1
    38    10    33    1
    39    12    34    1
    40    15    35    1
    41    16    36    1
    42    17    37    1
    43    18    38    1
    44    23    39    1
    45    24    40    1
    46    25    41    1
    47    26    42    1
