@<TRIPOS>MOLECULE
*****
 39 45 0 0 0
SMALL
GASTEIGER

@<TRIPOS>ATOM
      1 C           5.0766   -1.1262    0.2558 C.3     1  UNL1       -0.0065
      2 C           6.4232   -0.4538    0.1085 C.2     1  UNL1       -0.0776
      3 C           6.3143    0.8671   -0.1094 C.2     1  UNL1       -0.0396
      4 C           4.8993    1.1875   -0.1263 C.ar    1  UNL1        0.0676
      5 N           4.4107    2.4160   -0.3192 N.ar    1  UNL1       -0.2547
      6 C           3.0567    2.4840   -0.2961 C.ar    1  UNL1        0.0360
      7 C           2.1874    1.3940   -0.0905 C.ar    1  UNL1        0.0011
      8 C           0.7847    1.5376   -0.0779 C.ar    1  UNL1       -0.0448
      9 C          -0.0704    0.4434    0.1281 C.ar    1  UNL1       -0.0145
     10 C          -1.4819    0.6197    0.1366 C.ar    1  UNL1       -0.0440
     11 C          -2.4338   -0.4153    0.3321 C.ar    1  UNL1        0.0145
     12 C          -3.8758   -0.1934    0.3324 C.ar    1  UNL1        0.0305
     13 C          -4.7635   -0.6777    1.3078 C.ar    1  UNL1        0.0375
     14 N          -6.1258   -0.5022    1.3854 N.ar    1  UNL1       -0.2604
     15 C          -6.7905    0.2062    0.4298 C.ar    1  UNL1        0.0557
     16 C          -6.0403    0.7547   -0.6270 C.ar    1  UNL1        0.1185
     17 N          -6.5177    1.4784   -1.6523 N.ar    1  UNL1       -0.1892
     18 S          -5.2145    1.8587   -2.6047 S.2     1  UNL1        0.1165
     19 N          -3.9878    1.1409   -1.7506 N.ar    1  UNL1       -0.1901
     20 C          -4.5459    0.5513   -0.6757 C.ar    1  UNL1        0.1105
     21 C          -1.8761   -1.7116    0.5335 C.ar    1  UNL1        0.1083
     22 N          -2.5593   -2.8526    0.7371 N.ar    1  UNL1       -0.1901
     23 S          -1.4447   -4.0661    0.9011 S.2     1  UNL1        0.1165
     24 N          -0.0359   -3.2122    0.7353 N.ar    1  UNL1       -0.1901
     25 C          -0.3792   -1.9273    0.5301 C.ar    1  UNL1        0.1082
     26 C           0.5226   -0.8303    0.3248 C.ar    1  UNL1        0.0109
     27 C           1.9251   -0.9889    0.3148 C.ar    1  UNL1       -0.0438
     28 C           2.7613    0.1190    0.1081 C.ar    1  UNL1       -0.0103
     29 C           4.1497    0.0357    0.0859 C.ar    1  UNL1       -0.0105
     30 H           4.9297   -1.8740   -0.5288 H       1  UNL1        0.0356
     31 H           4.9758   -1.5775    1.2470 H       1  UNL1        0.0356
     32 H           7.3605   -0.9882    0.1734 H       1  UNL1        0.0576
     33 H           7.0970    1.5924   -0.2511 H       1  UNL1        0.0636
     34 H           2.6630    3.4857   -0.4545 H       1  UNL1        0.0836
     35 H           0.3577    2.5281   -0.2350 H       1  UNL1        0.0630
     36 H          -1.8654    1.6320   -0.0193 H       1  UNL1        0.0630
     37 H          -4.3753   -1.2686    2.1397 H       1  UNL1        0.0836
     38 H          -7.8624    0.3122    0.5303 H       1  UNL1        0.0852
     39 H           2.3512   -1.9787    0.4682 H       1  UNL1        0.0630
@<TRIPOS>BOND
     1     1     2    1
     2     2     3    2
     3     3     4    1
     4     4     5   ar
     5     5     6   ar
     6     6     7   ar
     7     7     8   ar
     8     8     9   ar
     9     9    10   ar
    10    10    11   ar
    11    11    12    1
    12    12    13   ar
    13    13    14   ar
    14    14    15   ar
    15    15    16   ar
    16    16    17   ar
    17    17    18   ar
    18    18    19   ar
    19    19    20   ar
    20    11    21   ar
    21    21    22   ar
    22    22    23   ar
    23    23    24   ar
    24    24    25   ar
    25    25    26   ar
    26    26    27   ar
    27    27    28   ar
    28    28    29   ar
    29    29     1    1
    30    29     4   ar
    31    28     7   ar
    32    26     9   ar
    33    20    12   ar
    34    25    21   ar
    35    20    16   ar
    36     1    30    1
    37     1    31    1
    38     2    32    1
    39     3    33    1
    40     6    34    1
    41     8    35    1
    42    10    36    1
    43    13    37    1
    44    15    38    1
    45    27    39    1
