@<TRIPOS>MOLECULE
*****
 45 52 0 0 0
SMALL
GASTEIGER

@<TRIPOS>ATOM
      1 C          -5.5374    0.4450    0.4148 C.3     1  UNL1       -0.0049
      2 C          -5.9631    1.5017    1.4519 C.2     1  UNL1       -0.0761
      3 C          -4.9003    2.1434    1.9923 C.2     1  UNL1       -0.0226
      4 C          -3.7622    1.5850    1.3826 C.ar    1  UNL1        0.1323
      5 O          -2.4312    1.7595    1.4589 O.2     1  UNL1       -0.4545
      6 C          -1.8684    0.8687    0.5700 C.ar    1  UNL1        0.1448
      7 C          -2.8646    0.1230   -0.0733 C.ar    1  UNL1        0.0326
      8 C          -4.0683    0.6076    0.4707 C.ar    1  UNL1        0.0098
      9 C          -2.4762   -0.8489   -1.0274 C.ar    1  UNL1       -0.0062
     10 C          -3.4856   -1.5973   -1.6738 C.ar    1  UNL1       -0.0533
     11 C          -3.1586   -2.5628   -2.6192 C.ar    1  UNL1       -0.0611
     12 C          -1.8272   -2.7903   -2.9285 C.ar    1  UNL1       -0.0611
     13 C          -0.8206   -2.0532   -2.2924 C.ar    1  UNL1       -0.0534
     14 C          -1.0960   -1.0570   -1.3196 C.ar    1  UNL1       -0.0093
     15 C          -0.0858   -0.2823   -0.6468 C.ar    1  UNL1       -0.0054
     16 C           1.3332   -0.4559   -0.9007 C.ar    1  UNL1       -0.0445
     17 C           2.3981    0.2575   -0.2895 C.ar    1  UNL1       -0.0018
     18 C           3.7954    0.0046   -0.5762 C.ar    1  UNL1        0.0308
     19 S           4.4331    0.2622   -2.1799 S.2     1  UNL1       -0.0923
     20 C           6.0416   -0.2210   -1.7433 C.ar    1  UNL1        0.0192
     21 C           6.0252   -0.5534   -0.4403 C.ar    1  UNL1        0.1424
     22 O           7.0804   -0.9925    0.2972 O.2     1  UNL1       -0.4624
     23 C           6.4524   -1.1671    1.5179 C.ar    1  UNL1        0.0932
     24 C           5.0880   -0.8481    1.5133 C.ar    1  UNL1       -0.0150
     25 C           4.8152   -0.4354    0.1969 C.ar    1  UNL1        0.0349
     26 C           1.9471    1.2064    0.6354 C.ar    1  UNL1       -0.0019
     27 C           2.7729    2.0531    1.3402 C.ar    1  UNL1       -0.0160
     28 S           1.8880    3.0832    2.3843 S.2     1  UNL1       -0.1038
     29 C           0.3895    2.4170    1.8774 C.ar    1  UNL1       -0.0159
     30 C           0.5471    1.4258    0.9340 C.ar    1  UNL1        0.0010
     31 C          -0.5022    0.7014    0.3180 C.ar    1  UNL1        0.0338
     32 H          -5.9431    0.6872   -0.5712 H       1  UNL1        0.0357
     33 H          -5.8553   -0.5530    0.7284 H       1  UNL1        0.0357
     34 H          -6.9956    1.6945    1.7053 H       1  UNL1        0.0576
     35 H          -4.8996    2.9238    2.7365 H       1  UNL1        0.0651
     36 H          -4.5356   -1.4358   -1.4483 H       1  UNL1        0.0624
     37 H          -3.9408   -3.1336   -3.1121 H       1  UNL1        0.0618
     38 H          -1.5612   -3.5423   -3.6675 H       1  UNL1        0.0618
     39 H           0.1987   -2.2852   -2.5875 H       1  UNL1        0.0624
     40 H           1.6425   -1.2113   -1.6224 H       1  UNL1        0.0630
     41 H           6.8720   -0.2361   -2.4336 H       1  UNL1        0.0731
     42 H           7.1091   -1.5267    2.2996 H       1  UNL1        0.1030
     43 H           4.4143   -0.9148    2.3557 H       1  UNL1        0.0655
     44 H           3.8503    2.1397    1.3104 H       1  UNL1        0.0700
     45 H          -0.5147    2.8138    2.3147 H       1  UNL1        0.0700
@<TRIPOS>BOND
     1     1     2    1
     2     2     3    2
     3     3     4    1
     4     4     5   ar
     5     5     6   ar
     6     6     7   ar
     7     7     8   ar
     8     7     9   ar
     9     9    10   ar
    10    10    11   ar
    11    11    12   ar
    12    12    13   ar
    13    13    14   ar
    14    14    15   ar
    15    15    16   ar
    16    16    17   ar
    17    17    18    1
    18    18    19   ar
    19    19    20   ar
    20    20    21   ar
    21    21    22   ar
    22    22    23   ar
    23    23    24   ar
    24    24    25   ar
    25    17    26   ar
    26    26    27   ar
    27    27    28   ar
    28    28    29   ar
    29    29    30   ar
    30    30    31   ar
    31     8     1    1
    32    14     9   ar
    33    31    15   ar
    34     8     4   ar
    35    25    18   ar
    36    30    26   ar
    37    31     6   ar
    38    25    21   ar
    39     1    32    1
    40     1    33    1
    41     2    34    1
    42     3    35    1
    43    10    36    1
    44    11    37    1
    45    12    38    1
    46    13    39    1
    47    16    40    1
    48    20    41    1
    49    23    42    1
    50    24    43    1
    51    27    44    1
    52    29    45    1
