@<TRIPOS>MOLECULE
*****
 49 56 0 0 0
SMALL
GASTEIGER

@<TRIPOS>ATOM
      1 C           5.8855    0.8445   -0.0908 C.3     1  UNL1       -0.0075
      2 C           6.5218    1.9599   -0.9258 C.2     1  UNL1       -0.0786
      3 C           5.5987    2.6352   -1.6438 C.2     1  UNL1       -0.0513
      4 C           4.3567    2.0420   -1.3462 C.ar    1  UNL1        0.0166
      5 S           2.8109    2.3443   -1.8501 S.2     1  UNL1       -0.0879
      6 C           2.1534    1.0458   -0.8660 C.ar    1  UNL1        0.0291
      7 C           3.1874    0.3951   -0.1498 C.ar    1  UNL1        0.0016
      8 C           4.4472    1.0064   -0.4605 C.ar    1  UNL1       -0.0211
      9 C           2.8374   -0.6960    0.7130 C.ar    1  UNL1       -0.0088
     10 C           3.8667   -1.3537    1.4336 C.ar    1  UNL1       -0.0534
     11 C           3.6013   -2.4183    2.2897 C.ar    1  UNL1       -0.0611
     12 C           2.2998   -2.8512    2.4464 C.ar    1  UNL1       -0.0611
     13 C           1.2702   -2.2173    1.7455 C.ar    1  UNL1       -0.0534
     14 C           1.4894   -1.1259    0.8586 C.ar    1  UNL1       -0.0095
     15 C           0.4465   -0.4697    0.1359 C.ar    1  UNL1       -0.0079
     16 C          -0.9508   -0.8813    0.2585 C.ar    1  UNL1       -0.0450
     17 C          -2.0783   -0.3166   -0.3908 C.ar    1  UNL1       -0.0075
     18 C          -3.4336   -0.7820   -0.2171 C.ar    1  UNL1       -0.0065
     19 C          -3.9206   -2.0440   -0.6529 C.ar    1  UNL1       -0.0533
     20 C          -5.2735   -2.5084   -0.4642 C.ar    1  UNL1       -0.0605
     21 C          -6.2868   -1.7677    0.1871 C.ar    1  UNL1       -0.0510
     22 C          -5.7864   -0.5454    0.6126 C.ar    1  UNL1        0.0204
     23 C          -6.4648    0.4325    1.2889 C.ar    1  UNL1        0.0994
     24 O          -5.6217    1.4812    1.5407 O.2     1  UNL1       -0.4698
     25 C          -4.3970    1.1614    1.0182 C.ar    1  UNL1        0.1000
     26 C          -4.4525   -0.0759    0.4285 C.ar    1  UNL1        0.0276
     27 C          -1.6772    0.7256   -1.2179 C.ar    1  UNL1        0.0078
     28 C          -2.5042    1.4735   -2.0215 C.ar    1  UNL1        0.0100
     29 N          -1.7155    2.3869   -2.6698 N.ar    1  UNL1       -0.3659
     30 C          -0.3991    2.2190   -2.2972 C.ar    1  UNL1        0.0100
     31 C          -0.3268    1.1834   -1.3911 C.ar    1  UNL1        0.0088
     32 C           0.8015    0.6272   -0.7332 C.ar    1  UNL1        0.0062
     33 H           6.0577    1.0212    0.9747 H       1  UNL1        0.0356
     34 H           6.2797   -0.1297   -0.3932 H       1  UNL1        0.0356
     35 H           7.5819    2.1671   -0.9279 H       1  UNL1        0.0576
     36 H           5.7644    3.4648   -2.3145 H       1  UNL1        0.0626
     37 H           4.9024   -1.0493    1.3436 H       1  UNL1        0.0624
     38 H           4.4105   -2.9026    2.8292 H       1  UNL1        0.0618
     39 H           2.0742   -3.6805    3.1117 H       1  UNL1        0.0618
     40 H           0.2743   -2.6124    1.9208 H       1  UNL1        0.0624
     41 H          -1.1941   -1.7082    0.9245 H       1  UNL1        0.0630
     42 H          -3.2314   -2.7100   -1.1758 H       1  UNL1        0.0624
     43 H          -5.5264   -3.4967   -0.8512 H       1  UNL1        0.0618
     44 H          -7.2966   -2.1257    0.3254 H       1  UNL1        0.0625
     45 H          -7.4747    0.5496    1.6547 H       1  UNL1        0.1035
     46 H          -3.6252    1.9069    1.1505 H       1  UNL1        0.1036
     47 H          -3.5719    1.4450   -2.1946 H       1  UNL1        0.0813
     48 H          -2.0463    3.0787   -3.3300 H       1  UNL1        0.1648
     49 H           0.3361    2.8715   -2.7399 H       1  UNL1        0.0813
@<TRIPOS>BOND
     1     1     2    1
     2     2     3    2
     3     3     4    1
     4     4     5   ar
     5     5     6   ar
     6     6     7   ar
     7     7     8   ar
     8     7     9   ar
     9     9    10   ar
    10    10    11   ar
    11    11    12   ar
    12    12    13   ar
    13    13    14   ar
    14    14    15   ar
    15    15    16   ar
    16    16    17   ar
    17    17    18    1
    18    18    19   ar
    19    19    20   ar
    20    20    21   ar
    21    21    22   ar
    22    22    23   ar
    23    23    24   ar
    24    24    25   ar
    25    25    26   ar
    26    17    27   ar
    27    27    28   ar
    28    28    29   ar
    29    29    30   ar
    30    30    31   ar
    31    31    32   ar
    32     8     1    1
    33    14     9   ar
    34    32    15   ar
    35     8     4   ar
    36    26    18   ar
    37    31    27   ar
    38    32     6   ar
    39    26    22   ar
    40     1    33    1
    41     1    34    1
    42     2    35    1
    43     3    36    1
    44    10    37    1
    45    11    38    1
    46    12    39    1
    47    13    40    1
    48    16    41    1
    49    19    42    1
    50    20    43    1
    51    21    44    1
    52    23    45    1
    53    25    46    1
    54    28    47    1
    55    29    48    1
    56    30    49    1
