@<TRIPOS>MOLECULE
*****
 41 47 0 0 0
SMALL
GASTEIGER

@<TRIPOS>ATOM
      1 C           5.4711    0.6515   -0.1969 C.3     1  UNL1        0.0000
      2 C           6.3534   -0.5109   -0.6688 C.2     1  UNL1        0.0000
      3 C           5.6279   -1.6212   -0.9301 C.2     1  UNL1        0.0000
      4 C           4.2849   -1.2877   -0.6630 C.ar    1  UNL1        0.0000
      5 S           2.8602   -2.1474   -0.7618 S.2     1  UNL1        0.0000
      6 C           1.8932   -0.7785   -0.2134 C.ar    1  UNL1        0.0000
      7 C           2.7860    0.2818    0.0109 C.ar    1  UNL1        0.0000
      8 C           4.1327    0.0047   -0.2385 C.ar    1  UNL1        0.0000
      9 C           2.2510    1.5306    0.4667 C.ar    1  UNL1        0.0000
     10 C           2.9834    2.6533    0.7309 C.ar    1  UNL1        0.0000
     11 S           1.9329    3.9087    1.2492 S.2     1  UNL1        0.0000
     12 C           0.5451    2.8962    1.0974 C.ar    1  UNL1        0.0000
     13 C           0.8520    1.6204    0.6614 C.ar    1  UNL1        0.0000
     14 C          -0.1161    0.6027    0.4575 C.ar    1  UNL1        0.0000
     15 C          -1.5335    0.7948    0.6820 C.ar    1  UNL1        0.0000
     16 C          -2.5049   -0.1996    0.4750 C.ar    1  UNL1        0.0000
     17 C          -3.9185    0.0181    0.7029 C.2     1  UNL1        0.0000
     18 C          -4.5553   -0.0137    1.8910 C.2     1  UNL1        0.0000
     19 C          -5.9774    0.2876    1.8354 C.2     1  UNL1        0.0000
     20 C          -6.4563    0.5746    0.6109 C.2     1  UNL1        0.0000
     21 SI         -5.1001    0.4892   -0.6952 Si      1  UNL1        0.0000
     22 C          -1.9516   -1.4163    0.0509 C.ar    1  UNL1        0.0000
     23 C          -2.7140   -2.5419   -0.1707 C.ar    1  UNL1        0.0000
     24 S          -1.7646   -3.8646   -0.6833 S.2     1  UNL1        0.0000
     25 C          -0.3198   -2.9415   -0.5920 C.ar    1  UNL1        0.0000
     26 C          -0.5243   -1.6417   -0.1832 C.ar    1  UNL1        0.0000
     27 C           0.4773   -0.6457   -0.0007 C.ar    1  UNL1        0.0000
     28 H           5.5436    1.4937   -0.8905 H       1  UNL1        0.0000
     29 H           5.7496    0.9577    0.8152 H       1  UNL1        0.0000
     30 H           7.4258   -0.4337   -0.7739 H       1  UNL1        0.0000
     31 H           5.9908   -2.5780   -1.2745 H       1  UNL1        0.0000
     32 H           4.0442    2.8368    0.6620 H       1  UNL1        0.0000
     33 H          -0.4132    3.3271    1.3469 H       1  UNL1        0.0000
     34 H          -1.8913    1.7630    1.0289 H       1  UNL1        0.0000
     35 H          -4.0734   -0.2398    2.8348 H       1  UNL1        0.0000
     36 H          -6.5835    0.2768    2.7332 H       1  UNL1        0.0000
     37 H          -7.4729    0.8247    0.3519 H       1  UNL1        0.0000
     38 H          -5.3314   -0.6201   -1.6537 H       1  UNL1        0.0000
     39 H          -4.8065    1.8242   -1.2742 H       1  UNL1        0.0000
     40 H          -3.7815   -2.6739   -0.0597 H       1  UNL1        0.0000
     41 H           0.5847   -3.4619   -0.8528 H       1  UNL1        0.0000
@<TRIPOS>BOND
     1     1     2    1
     2     2     3    2
     3     3     4    1
     4     4     5   ar
     5     5     6   ar
     6     6     7   ar
     7     7     8   ar
     8     7     9   ar
     9     9    10   ar
    10    10    11   ar
    11    11    12   ar
    12    12    13   ar
    13    13    14   ar
    14    14    15   ar
    15    15    16   ar
    16    16    17    1
    17    17    18    2
    18    18    19    1
    19    19    20    2
    20    20    21    1
    21    16    22   ar
    22    22    23   ar
    23    23    24   ar
    24    24    25   ar
    25    25    26   ar
    26    26    27   ar
    27     8     1    1
    28    13     9   ar
    29    27    14   ar
    30     8     4   ar
    31    21    17    1
    32    26    22   ar
    33    27     6   ar
    34     1    28    1
    35     1    29    1
    36     2    30    1
    37     3    31    1
    38    10    32    1
    39    12    33    1
    40    15    34    1
    41    18    35    1
    42    19    36    1
    43    20    37    1
    44    21    38    1
    45    21    39    1
    46    23    40    1
    47    25    41    1
