@<TRIPOS>MOLECULE
*****
 39 45 0 0 0
SMALL
GASTEIGER

@<TRIPOS>ATOM
      1 C           5.9667   -0.5071    0.6051 C.3     1  UNL1        0.0000
      2 C           6.7805    0.7640    0.8941 C.2     1  UNL1        0.0000
      3 C           6.0087    1.8755    0.8913 C.2     1  UNL1        0.0000
      4 C           4.6953    1.4450    0.6148 C.ar    1  UNL1        0.0000
      5 S           3.2328    2.2447    0.4567 S.2     1  UNL1        0.0000
      6 C           2.3768    0.7373    0.1323 C.ar    1  UNL1        0.0000
      7 C           3.3055   -0.3005    0.1710 C.ar    1  UNL1        0.0000
      8 C           4.6159    0.0879    0.4422 C.ar    1  UNL1        0.0000
      9 C           2.8681   -1.6438   -0.0610 C.ar    1  UNL1        0.0000
     10 N           3.6995   -2.6759   -0.0372 N.ar    1  UNL1        0.0000
     11 S           2.6850   -3.9674   -0.3630 S.2     1  UNL1        0.0000
     12 N           1.2211   -3.1745   -0.5215 N.ar    1  UNL1        0.0000
     13 C           1.4590   -1.8582   -0.3287 C.ar    1  UNL1        0.0000
     14 C           0.5006   -0.7987   -0.3711 C.ar    1  UNL1        0.0000
     15 C          -0.8690   -1.0199   -0.6334 C.ar    1  UNL1        0.0000
     16 C          -1.7679    0.0529   -0.6640 C.ar    1  UNL1        0.0000
     17 C          -1.2902    1.3493   -0.4269 C.ar    1  UNL1        0.0000
     18 C           0.0653    1.5846   -0.1661 C.ar    1  UNL1        0.0000
     19 C           0.9843    0.5174   -0.1333 C.ar    1  UNL1        0.0000
     20 C          -3.1910   -0.1663   -0.9249 C.ar    1  UNL1        0.0000
     21 S          -3.6850   -0.8621   -2.4365 S.2     1  UNL1        0.0000
     22 C          -5.3627   -0.7800   -2.0419 C.ar    1  UNL1        0.0000
     23 C          -5.5090   -0.2385   -0.8028 C.ar    1  UNL1        0.0000
     24 SI         -6.9503    0.1808    0.3324 Si      1  UNL1        0.0000
     25 C          -5.6778    0.8088    1.6159 C.2     1  UNL1        0.0000
     26 C          -4.4121    0.6781    1.1609 C.2     1  UNL1        0.0000
     27 C          -4.2949    0.1150   -0.1535 C.ar    1  UNL1        0.0000
     28 H           6.0149   -1.1975    1.4516 H       1  UNL1        0.0000
     29 H           6.3181   -0.9911   -0.3102 H       1  UNL1        0.0000
     30 H           7.8454    0.7503    1.0755 H       1  UNL1        0.0000
     31 H           6.3230    2.8938    1.0644 H       1  UNL1        0.0000
     32 H          -1.2273   -2.0337   -0.8066 H       1  UNL1        0.0000
     33 H          -1.9760    2.1946   -0.4536 H       1  UNL1        0.0000
     34 H           0.3847    2.6098    0.0065 H       1  UNL1        0.0000
     35 H          -6.1107   -1.1313   -2.7395 H       1  UNL1        0.0000
     36 H          -7.8023    1.2934   -0.1565 H       1  UNL1        0.0000
     37 H          -7.6834   -1.0028    0.8461 H       1  UNL1        0.0000
     38 H          -5.9985    1.1993    2.5682 H       1  UNL1        0.0000
     39 H          -3.5435    0.9667    1.7417 H       1  UNL1        0.0000
@<TRIPOS>BOND
     1     1     2    1
     2     2     3    2
     3     3     4    1
     4     4     5   ar
     5     5     6   ar
     6     6     7   ar
     7     7     8   ar
     8     7     9   ar
     9     9    10   ar
    10    10    11   ar
    11    11    12   ar
    12    12    13   ar
    13    13    14   ar
    14    14    15   ar
    15    15    16   ar
    16    16    17   ar
    17    17    18   ar
    18    18    19   ar
    19    16    20    1
    20    20    21   ar
    21    21    22   ar
    22    22    23   ar
    23    23    24    1
    24    24    25    1
    25    25    26    2
    26    26    27    1
    27     8     1    1
    28    13     9   ar
    29    19    14   ar
    30    27    20   ar
    31     8     4   ar
    32    27    23   ar
    33    19     6   ar
    34     1    28    1
    35     1    29    1
    36     2    30    1
    37     3    31    1
    38    15    32    1
    39    17    33    1
    40    18    34    1
    41    22    35    1
    42    24    36    1
    43    24    37    1
    44    25    38    1
    45    26    39    1
