@<TRIPOS>MOLECULE
*****
 34 38 0 0 0
SMALL
GASTEIGER

@<TRIPOS>ATOM
      1 C          -5.4038    0.5208   -0.0603 C.3     1  UNL1        0.0000
      2 C          -6.2123   -0.7148   -0.4814 C.2     1  UNL1        0.0000
      3 C          -5.4136   -1.7573   -0.8059 C.2     1  UNL1        0.0000
      4 C          -4.0890   -1.3095   -0.6291 C.ar    1  UNL1        0.0000
      5 S          -2.6001   -2.0273   -0.8330 S.2     1  UNL1        0.0000
      6 C          -1.7760   -0.5688   -0.3079 C.ar    1  UNL1        0.0000
      7 C          -2.6981    0.4588   -0.0105 C.ar    1  UNL1        0.0000
      8 C          -2.2060    1.7119    0.4217 C.ar    1  UNL1        0.0000
      9 C          -0.8324    1.9220    0.5701 C.ar    1  UNL1        0.0000
     10 C           0.0760    0.8976    0.2854 C.ar    1  UNL1        0.0000
     11 C           1.4618    1.0605    0.4249 C.ar    1  UNL1        0.0000
     12 C           2.3276    0.0073    0.1111 C.ar    1  UNL1        0.0000
     13 C           1.7608   -1.1940   -0.3135 C.ar    1  UNL1        0.0000
     14 N           0.4327   -1.3959   -0.4700 N.ar    1  UNL1        0.0000
     15 C          -0.3832   -0.3548   -0.1669 C.ar    1  UNL1        0.0000
     16 C           3.7647    0.1579    0.2671 C.2     1  UNL1        0.0000
     17 C           4.4559    0.1400    1.4246 C.2     1  UNL1        0.0000
     18 C           5.8938    0.3127    1.2839 C.2     1  UNL1        0.0000
     19 C           6.3338    0.4686    0.0207 C.2     1  UNL1        0.0000
     20 SI          4.9112    0.4214   -1.2151 Si      1  UNL1        0.0000
     21 C          -4.0213   -0.0098   -0.2034 C.ar    1  UNL1        0.0000
     22 H          -5.5935    1.3602   -0.7364 H       1  UNL1        0.0000
     23 H          -5.6295    0.8001    0.9737 H       1  UNL1        0.0000
     24 H          -7.2919   -0.7331   -0.5066 H       1  UNL1        0.0000
     25 H          -5.7150   -2.7430   -1.1308 H       1  UNL1        0.0000
     26 H          -2.9001    2.5161    0.6545 H       1  UNL1        0.0000
     27 H          -0.4823    2.8955    0.9091 H       1  UNL1        0.0000
     28 H           1.8680    2.0055    0.7774 H       1  UNL1        0.0000
     29 H           2.3783   -2.0613   -0.5440 H       1  UNL1        0.0000
     30 H           4.0081   -0.0076    2.4014 H       1  UNL1        0.0000
     31 H           6.5406    0.3068    2.1526 H       1  UNL1        0.0000
     32 H           7.3535    0.6016   -0.3021 H       1  UNL1        0.0000
     33 H           4.9799   -0.7650   -2.1058 H       1  UNL1        0.0000
     34 H           4.7015    1.7469   -1.8555 H       1  UNL1        0.0000
@<TRIPOS>BOND
     1     1     2    1
     2     2     3    2
     3     3     4    1
     4     4     5   ar
     5     5     6   ar
     6     6     7   ar
     7     7     8   ar
     8     8     9   ar
     9     9    10   ar
    10    10    11   ar
    11    11    12   ar
    12    12    13   ar
    13    13    14   ar
    14    14    15   ar
    15    12    16    1
    16    16    17    2
    17    17    18    1
    18    18    19    2
    19    19    20    1
    20     7    21   ar
    21    21     1    1
    22    21     4   ar
    23    15     6   ar
    24    20    16    1
    25    15    10   ar
    26     1    22    1
    27     1    23    1
    28     2    24    1
    29     3    25    1
    30     8    26    1
    31     9    27    1
    32    11    28    1
    33    13    29    1
    34    17    30    1
    35    18    31    1
    36    19    32    1
    37    20    33    1
    38    20    34    1
