@<TRIPOS>MOLECULE
*****
 40 46 0 0 0
SMALL
GASTEIGER

@<TRIPOS>ATOM
      1 SI          1.8195   -0.2878   -1.0104 Si      1  UNL1        0.0000
      2 C           3.1788    0.0386    0.2216 C.2     1  UNL1        0.0000
      3 C           2.7005    0.2802    1.4540 C.2     1  UNL1        0.0000
      4 C           1.2346    0.2533    1.5300 C.ar    1  UNL1        0.0000
      5 C           0.4630   -0.0777    0.3646 C.ar    1  UNL1        0.0000
      6 C          -0.9932   -0.1100    0.2897 C.ar    1  UNL1        0.0000
      7 C          -1.7949   -0.5353   -0.8447 C.ar    1  UNL1        0.0000
      8 C          -1.3084   -1.2224   -1.9905 C.ar    1  UNL1        0.0000
      9 C          -2.0970   -1.5666   -3.0959 C.ar    1  UNL1        0.0000
     10 C          -3.4406   -1.2608   -3.1007 C.ar    1  UNL1        0.0000
     11 C          -3.9916   -0.6527   -1.9815 C.ar    1  UNL1        0.0000
     12 C          -3.2007   -0.3135   -0.8519 C.ar    1  UNL1        0.0000
     13 C          -3.8817    0.2295    0.2781 C.ar    1  UNL1        0.0000
     14 C          -5.2868    0.5270    0.4764 C.ar    1  UNL1        0.0000
     15 C          -5.5794    1.0057    1.7247 C.ar    1  UNL1        0.0000
     16 S          -4.1936    1.1053    2.6826 S.2     1  UNL1        0.0000
     17 C          -3.1340    0.5158    1.4264 C.ar    1  UNL1        0.0000
     18 C          -1.7129    0.3442    1.4606 C.ar    1  UNL1        0.0000
     19 C          -0.9677    0.6498    2.6698 C.ar    1  UNL1        0.0000
     20 N          -1.4533    1.0137    3.8726 N.ar    1  UNL1        0.0000
     21 S          -0.1853    1.2449    4.8996 S.2     1  UNL1        0.0000
     22 N           1.0742    0.9091    3.8867 N.ar    1  UNL1        0.0000
     23 C           0.5353    0.5906    2.6972 C.ar    1  UNL1        0.0000
     24 C           4.5534    0.0196   -0.1251 C.ar    1  UNL1        0.0000
     25 C           5.2021    0.6344   -1.1858 C.ar    1  UNL1        0.0000
     26 C           6.6031    0.3736   -1.2179 C.ar    1  UNL1        0.0000
     27 C           6.9968   -0.4376   -0.1808 C.ar    1  UNL1        0.0000
     28 S           5.6874   -0.8771    0.8213 S.2     1  UNL1        0.0000
     29 H           1.7024    0.7702   -2.0467 H       1  UNL1        0.0000
     30 H           1.8652   -1.6790   -1.5305 H       1  UNL1        0.0000
     31 H           3.3018    0.5014    2.3281 H       1  UNL1        0.0000
     32 H          -0.2909   -1.5793   -2.0429 H       1  UNL1        0.0000
     33 H          -1.6518   -2.0884   -3.9395 H       1  UNL1        0.0000
     34 H          -4.0649   -1.5210   -3.9506 H       1  UNL1        0.0000
     35 H          -5.0611   -0.4626   -2.0030 H       1  UNL1        0.0000
     36 H          -6.0589    0.3878   -0.2690 H       1  UNL1        0.0000
     37 H          -6.5454    1.2947    2.1153 H       1  UNL1        0.0000
     38 H           4.6969    1.2620   -1.9107 H       1  UNL1        0.0000
     39 H           7.2856    0.7652   -1.9621 H       1  UNL1        0.0000
     40 H           7.9935   -0.7935    0.0409 H       1  UNL1        0.0000
@<TRIPOS>BOND
     1     1     2    1
     2     2     3    2
     3     3     4    1
     4     4     5   ar
     5     5     6   ar
     6     6     7   ar
     7     7     8   ar
     8     8     9   ar
     9     9    10   ar
    10    10    11   ar
    11    11    12   ar
    12    12    13   ar
    13    13    14   ar
    14    14    15   ar
    15    15    16   ar
    16    16    17   ar
    17    17    18   ar
    18    18    19   ar
    19    19    20   ar
    20    20    21   ar
    21    21    22   ar
    22    22    23   ar
    23     2    24    1
    24    24    25   ar
    25    25    26   ar
    26    26    27   ar
    27    27    28   ar
    28     5     1    1
    29    18     6   ar
    30    23    19   ar
    31    28    24   ar
    32    23     4   ar
    33    12     7   ar
    34    17    13   ar
    35     1    29    1
    36     1    30    1
    37     3    31    1
    38     8    32    1
    39     9    33    1
    40    10    34    1
    41    11    35    1
    42    14    36    1
    43    15    37    1
    44    25    38    1
    45    26    39    1
    46    27    40    1
