@<TRIPOS>MOLECULE
*****
 42 48 0 0 0
SMALL
GASTEIGER

@<TRIPOS>ATOM
      1 SI         -3.0262    3.2388   -2.0144 Si      1  UNL1        0.0000
      2 C          -1.5454    2.3506   -1.3207 C.2     1  UNL1        0.0000
      3 C          -1.8746    1.1723   -0.7523 C.ar    1  UNL1        0.0000
      4 C          -0.9926    0.2505   -0.0832 C.ar    1  UNL1        0.0000
      5 C          -1.5659   -0.6393    0.8236 C.ar    1  UNL1        0.0000
      6 S          -0.3841   -1.3846    1.8111 S.2     1  UNL1        0.0000
      7 C           0.9224   -0.7342    0.8975 C.ar    1  UNL1        0.0000
      8 C           2.3093   -0.9474    1.1299 C.ar    1  UNL1        0.0000
      9 C           3.2892   -0.4367    0.2608 C.ar    1  UNL1        0.0000
     10 C           4.7105   -0.6624    0.4625 C.ar    1  UNL1        0.0000
     11 C           5.5630   -1.5073   -0.2213 C.ar    1  UNL1        0.0000
     12 C           6.8978   -1.4491    0.2753 C.ar    1  UNL1        0.0000
     13 C           7.0181   -0.5654    1.3242 C.ar    1  UNL1        0.0000
     14 S           5.5292    0.1851    1.7059 S.2     1  UNL1        0.0000
     15 C           2.7579    0.2213   -0.8554 C.ar    1  UNL1        0.0000
     16 C           3.5358    0.7337   -1.8751 C.ar    1  UNL1        0.0000
     17 S           2.5905    1.3701   -3.1659 S.2     1  UNL1        0.0000
     18 C           1.1186    0.9828   -2.3666 C.ar    1  UNL1        0.0000
     19 C           1.3810    0.4633   -1.1310 C.ar    1  UNL1        0.0000
     20 C           0.4097    0.0247   -0.1480 C.ar    1  UNL1        0.0000
     21 C          -3.0181   -0.9043    0.9653 C.ar    1  UNL1        0.0000
     22 C          -3.5337   -1.9087    1.8021 C.ar    1  UNL1        0.0000
     23 C          -4.9052   -2.1659    1.8509 C.ar    1  UNL1        0.0000
     24 C          -5.7801   -1.4308    1.0593 C.ar    1  UNL1        0.0000
     25 C          -5.2894   -0.4274    0.2226 C.ar    1  UNL1        0.0000
     26 C          -3.9145   -0.1455    0.1687 C.ar    1  UNL1        0.0000
     27 C          -3.3491    0.9488   -0.6664 C.ar    1  UNL1        0.0000
     28 C          -4.0909    1.8921   -1.2882 C.2     1  UNL1        0.0000
     29 H          -3.2587    4.5534   -1.3708 H       1  UNL1        0.0000
     30 H          -3.0436    3.2352   -3.4967 H       1  UNL1        0.0000
     31 H          -0.5703    2.8050   -1.3786 H       1  UNL1        0.0000
     32 H           2.6158   -1.5370    1.9928 H       1  UNL1        0.0000
     33 H           5.2429   -2.1399   -1.0410 H       1  UNL1        0.0000
     34 H           7.7259   -2.0276   -0.1155 H       1  UNL1        0.0000
     35 H           7.9079   -0.3236    1.8891 H       1  UNL1        0.0000
     36 H           4.6134    0.7527   -1.9652 H       1  UNL1        0.0000
     37 H           0.1817    1.1495   -2.8743 H       1  UNL1        0.0000
     38 H          -2.8804   -2.5180    2.4206 H       1  UNL1        0.0000
     39 H          -5.2867   -2.9484    2.5022 H       1  UNL1        0.0000
     40 H          -6.8472   -1.6361    1.0926 H       1  UNL1        0.0000
     41 H          -6.0000    0.1277   -0.3821 H       1  UNL1        0.0000
     42 H          -5.1637    1.9821   -1.3253 H       1  UNL1        0.0000
@<TRIPOS>BOND
     1     1     2    1
     2     2     3    2
     3     3     4   ar
     4     4     5   ar
     5     5     6   ar
     6     6     7   ar
     7     7     8   ar
     8     8     9   ar
     9     9    10    1
    10    10    11   ar
    11    11    12   ar
    12    12    13   ar
    13    13    14   ar
    14     9    15   ar
    15    15    16   ar
    16    16    17   ar
    17    17    18   ar
    18    18    19   ar
    19    19    20   ar
    20     5    21   ar
    21    21    22   ar
    22    22    23   ar
    23    23    24   ar
    24    24    25   ar
    25    25    26   ar
    26    26    27   ar
    27    27    28    2
    28    28     1    1
    29    27     3   ar
    30    20     4   ar
    31    26    21   ar
    32    20     7   ar
    33    14    10   ar
    34    19    15   ar
    35     1    29    1
    36     1    30    1
    37     2    31    1
    38     8    32    1
    39    11    33    1
    40    12    34    1
    41    13    35    1
    42    16    36    1
    43    18    37    1
    44    22    38    1
    45    23    39    1
    46    24    40    1
    47    25    41    1
    48    28    42    1
