@<TRIPOS>MOLECULE
*****
 32 36 0 0 0
SMALL
GASTEIGER

@<TRIPOS>ATOM
      1 C           4.2591   -0.8396   -1.1561 C.3     1  UNL1       -0.0078
      2 C           5.5393   -0.6389   -0.3295 C.2     1  UNL1       -0.0786
      3 C           5.2914   -0.0566    0.8671 C.2     1  UNL1       -0.0513
      4 C           3.8999    0.1612    0.9210 C.ar    1  UNL1        0.0162
      5 S           2.8748    0.8343    2.0807 S.2     1  UNL1       -0.0889
      6 C           1.5575    0.5509    1.0642 C.ar    1  UNL1        0.0168
      7 C           0.1741    0.7953    1.1827 C.2     1  UNL1       -0.0436
      8 C          -0.3948    0.3376    0.0392 C.2     1  UNL1       -0.0342
      9 C           0.6507   -0.2370   -0.9387 C.3     1  UNL1       -0.0005
     10 C           1.8863   -0.0433   -0.1371 C.ar    1  UNL1       -0.0248
     11 C           3.2570   -0.2721   -0.2209 C.ar    1  UNL1       -0.0254
     12 C          -1.8037    0.3930   -0.3107 C.ar    1  UNL1       -0.0133
     13 C          -2.2846    0.9290   -1.5309 C.ar    1  UNL1       -0.0537
     14 C          -3.6699    0.9941   -1.8903 C.ar    1  UNL1       -0.0606
     15 C          -4.7183    0.5223   -1.0739 C.ar    1  UNL1       -0.0535
     16 C          -4.2434   -0.0218    0.1191 C.ar    1  UNL1       -0.0103
     17 C          -5.0842   -0.5610    1.0610 C.ar    1  UNL1       -0.0166
     18 S          -4.2036   -1.1790    2.3994 S.2     1  UNL1       -0.1039
     19 C          -2.6938   -0.7246    1.7109 C.ar    1  UNL1       -0.0160
     20 C          -2.8492   -0.0916    0.4983 C.ar    1  UNL1       -0.0035
     21 H           4.3100   -0.2791   -2.0935 H       1  UNL1        0.0356
     22 H           4.0848   -1.9012   -1.3507 H       1  UNL1        0.0356
     23 H           6.5171   -0.9354   -0.6801 H       1  UNL1        0.0576
     24 H           6.0046    0.1965    1.6367 H       1  UNL1        0.0626
     25 H          -0.3117    1.2692    2.0225 H       1  UNL1        0.0632
     26 H           0.4626   -1.2958   -1.1400 H       1  UNL1        0.0362
     27 H           0.6893    0.3323   -1.8720 H       1  UNL1        0.0362
     28 H          -1.5679    1.3400   -2.2430 H       1  UNL1        0.0624
     29 H          -3.9262    1.4388   -2.8528 H       1  UNL1        0.0618
     30 H          -5.7588    0.5797   -1.3651 H       1  UNL1        0.0624
     31 H          -6.1626   -0.6385    1.0439 H       1  UNL1        0.0699
     32 H          -1.7859   -0.9586    2.2484 H       1  UNL1        0.0700
@<TRIPOS>BOND
     1     1     2    1
     2     2     3    2
     3     3     4    1
     4     4     5   ar
     5     5     6   ar
     6     6     7    1
     7     7     8    2
     8     8     9    1
     9     9    10    1
    10    10    11   ar
    11     8    12    1
    12    12    13   ar
    13    13    14   ar
    14    14    15   ar
    15    15    16   ar
    16    16    17   ar
    17    17    18   ar
    18    18    19   ar
    19    19    20   ar
    20    11     1    1
    21    20    12   ar
    22    11     4   ar
    23    20    16   ar
    24    10     6   ar
    25     1    21    1
    26     1    22    1
    27     2    23    1
    28     3    24    1
    29     7    25    1
    30     9    26    1
    31     9    27    1
    32    13    28    1
    33    14    29    1
    34    15    30    1
    35    17    31    1
    36    19    32    1
