@<TRIPOS>MOLECULE
*****
 43 49 0 0 0
SMALL
GASTEIGER

@<TRIPOS>ATOM
      1 C          -5.6402    0.7544    0.5127 C.3     1  UNL1        0.0000
      2 C          -5.9671    1.8478    1.5428 C.2     1  UNL1        0.0000
      3 C          -4.8562    2.3303    2.1469 C.2     1  UNL1        0.0000
      4 C          -3.7670    1.6291    1.5907 C.ar    1  UNL1        0.0000
      5 S          -2.1011    1.6896    1.8480 S.2     1  UNL1        0.0000
      6 C          -1.8677    0.4673    0.6812 C.ar    1  UNL1        0.0000
      7 C          -0.5363   -0.1713    0.2145 C.ar    1  UNL1        0.0000
      8 N           0.7555    0.0499    0.5876 N.ar    1  UNL1        0.0000
      9 C           1.5892   -0.7841   -0.1468 C.ar    1  UNL1        0.0000
     10 C           0.7966   -1.5626   -0.9876 C.ar    1  UNL1        0.0000
     11 C          -0.5084   -1.1511   -0.7407 C.ar    1  UNL1        0.0000
     12 C          -1.7623   -1.5424   -1.2721 C.ar    1  UNL1        0.0000
     13 C          -2.0093   -2.4879   -2.2269 C.ar    1  UNL1        0.0000
     14 N          -3.3854   -2.4957   -2.3986 N.ar    1  UNL1        0.0000
     15 C          -3.9897   -1.5672   -1.5616 C.ar    1  UNL1        0.0000
     16 C          -2.9731   -0.9767   -0.8627 C.ar    1  UNL1        0.0000
     17 C          -3.0614    0.0469    0.1279 C.ar    1  UNL1        0.0000
     18 C          -4.1653    0.7090    0.6438 C.ar    1  UNL1        0.0000
     19 C           2.9915   -0.7146    0.0978 C.ar    1  UNL1        0.0000
     20 C           3.6187   -1.8760    0.4071 C.ar    1  UNL1        0.0000
     21 C           5.0431   -1.9596    0.7244 C.ar    1  UNL1        0.0000
     22 C           5.8386   -0.8749    0.7331 C.ar    1  UNL1        0.0000
     23 C           5.2632    0.4110    0.3996 C.ar    1  UNL1        0.0000
     24 C           5.9453    1.5698    0.3408 C.2     1  UNL1        0.0000
     25 SI          4.8216    2.9722   -0.1758 Si      1  UNL1        0.0000
     26 C           3.4113    1.7461   -0.2681 C.2     1  UNL1        0.0000
     27 C           3.8189    0.5036    0.0667 C.ar    1  UNL1        0.0000
     28 H          -5.9564    1.0597   -0.4885 H       1  UNL1        0.0000
     29 H          -6.1088   -0.1930    0.7928 H       1  UNL1        0.0000
     30 H          -6.9746    2.1793    1.7474 H       1  UNL1        0.0000
     31 H          -4.7994    3.0975    2.9041 H       1  UNL1        0.0000
     32 H           1.0613    0.7114    1.2882 H       1  UNL1        0.0000
     33 H           1.1488   -2.3122   -1.6821 H       1  UNL1        0.0000
     34 H          -1.3716   -3.1479   -2.7978 H       1  UNL1        0.0000
     35 H          -3.8802   -3.0956   -3.0454 H       1  UNL1        0.0000
     36 H          -5.0624   -1.4389   -1.5640 H       1  UNL1        0.0000
     37 H           3.0701   -2.8136    0.4579 H       1  UNL1        0.0000
     38 H           5.4430   -2.9399    0.9643 H       1  UNL1        0.0000
     39 H           6.8933   -0.9474    0.9722 H       1  UNL1        0.0000
     40 H           6.9945    1.7249    0.5337 H       1  UNL1        0.0000
     41 H           4.6296    3.9674    0.9068 H       1  UNL1        0.0000
     42 H           5.1829    3.5287   -1.5016 H       1  UNL1        0.0000
     43 H           2.4269    2.0565   -0.5791 H       1  UNL1        0.0000
@<TRIPOS>BOND
     1     1     2    1
     2     2     3    2
     3     3     4    1
     4     4     5   ar
     5     5     6   ar
     6     6     7   ar
     7     7     8   ar
     8     8     9   ar
     9     9    10   ar
    10    10    11   ar
    11    11    12   ar
    12    12    13   ar
    13    13    14   ar
    14    14    15   ar
    15    15    16   ar
    16    16    17   ar
    17    17    18   ar
    18     9    19    1
    19    19    20   ar
    20    20    21   ar
    21    21    22   ar
    22    22    23   ar
    23    23    24    2
    24    24    25    1
    25    25    26    1
    26    26    27    2
    27    18     1    1
    28    27    19   ar
    29    18     4   ar
    30    27    23   ar
    31    17     6   ar
    32    11     7   ar
    33    16    12   ar
    34     1    28    1
    35     1    29    1
    36     2    30    1
    37     3    31    1
    38     8    32    1
    39    10    33    1
    40    13    34    1
    41    14    35    1
    42    15    36    1
    43    20    37    1
    44    21    38    1
    45    22    39    1
    46    24    40    1
    47    25    41    1
    48    25    42    1
    49    26    43    1
