@<TRIPOS>MOLECULE
*****
 49 56 0 0 0
SMALL
GASTEIGER

@<TRIPOS>ATOM
      1 C           7.5862    0.6963    0.3400 C.3     1  UNL1        0.0000
      2 C           8.3557    0.4769   -0.9691 C.2     1  UNL1        0.0000
      3 C           7.5640   -0.0219   -1.9459 C.2     1  UNL1        0.0000
      4 C           6.2802   -0.1612   -1.3825 C.ar    1  UNL1        0.0000
      5 S           4.8196   -0.7037   -1.9736 S.2     1  UNL1        0.0000
      6 C           4.0447   -0.4157   -0.4378 C.ar    1  UNL1        0.0000
      7 C           2.7223   -0.6245   -0.0640 C.ar    1  UNL1        0.0000
      8 SI          1.2953   -1.2694   -1.0181 Si      1  UNL1        0.0000
      9 C           0.2413   -1.0222    0.5321 C.2     1  UNL1        0.0000
     10 C           0.9482   -0.5452    1.5759 C.2     1  UNL1        0.0000
     11 C           2.3598   -0.3042    1.2442 C.ar    1  UNL1        0.0000
     12 N           3.1909    0.1913    2.1679 N.ar    1  UNL1        0.0000
     13 C           4.4817    0.3953    1.8113 C.ar    1  UNL1        0.0000
     14 C           4.9500    0.1046    0.5151 C.ar    1  UNL1        0.0000
     15 C           6.2322    0.2355   -0.0730 C.ar    1  UNL1        0.0000
     16 C          -1.1272   -1.3806    0.5835 C.ar    1  UNL1        0.0000
     17 S          -1.4507   -3.0182    1.0582 S.2     1  UNL1        0.0000
     18 C          -3.1276   -2.8384    0.8568 C.ar    1  UNL1        0.0000
     19 C          -3.4712   -1.5684    0.4595 C.ar    1  UNL1        0.0000
     20 C          -2.3162   -0.6963    0.3264 C.ar    1  UNL1        0.0000
     21 C          -2.4370    0.6875   -0.0546 C.ar    1  UNL1        0.0000
     22 C          -1.3769    1.6307   -0.1722 C.ar    1  UNL1        0.0000
     23 C          -1.6076    2.9450   -0.5611 C.ar    1  UNL1        0.0000
     24 C          -2.8977    3.3515   -0.8361 C.ar    1  UNL1        0.0000
     25 C          -3.9574    2.4460   -0.7117 C.ar    1  UNL1        0.0000
     26 C          -3.7966    1.0926   -0.3160 C.ar    1  UNL1        0.0000
     27 C          -4.9518    0.1853   -0.1836 C.ar    1  UNL1        0.0000
     28 C          -6.2898    0.5899   -0.4374 C.ar    1  UNL1        0.0000
     29 C          -7.3973   -0.2611   -0.3089 C.ar    1  UNL1        0.0000
     30 C          -7.2244   -1.5762    0.0847 C.ar    1  UNL1        0.0000
     31 C          -5.9433   -2.0405    0.3486 C.ar    1  UNL1        0.0000
     32 C          -4.8164   -1.1808    0.2187 C.ar    1  UNL1        0.0000
     33 H           8.0009    0.0810    1.1431 H       1  UNL1        0.0000
     34 H           7.5909    1.7528    0.6219 H       1  UNL1        0.0000
     35 H           9.4071    0.7001   -1.0796 H       1  UNL1        0.0000
     36 H           7.8460   -0.2689   -2.9586 H       1  UNL1        0.0000
     37 H           1.4358   -2.7010   -1.3909 H       1  UNL1        0.0000
     38 H           0.8842   -0.3675   -2.1246 H       1  UNL1        0.0000
     39 H           0.5725   -0.3472    2.5696 H       1  UNL1        0.0000
     40 H           5.1282    0.7958    2.5851 H       1  UNL1        0.0000
     41 H          -3.7597   -3.6925    1.0484 H       1  UNL1        0.0000
     42 H          -0.3529    1.3682    0.0532 H       1  UNL1        0.0000
     43 H          -0.7803    3.6447   -0.6420 H       1  UNL1        0.0000
     44 H          -3.0938    4.3762   -1.1412 H       1  UNL1        0.0000
     45 H          -4.9399    2.8497   -0.9384 H       1  UNL1        0.0000
     46 H          -6.5168    1.6053   -0.7489 H       1  UNL1        0.0000
     47 H          -8.3948    0.1170   -0.5191 H       1  UNL1        0.0000
     48 H          -8.0803   -2.2374    0.1858 H       1  UNL1        0.0000
     49 H          -5.8303   -3.0758    0.6547 H       1  UNL1        0.0000
@<TRIPOS>BOND
     1     1     2    1
     2     2     3    2
     3     3     4    1
     4     4     5   ar
     5     5     6   ar
     6     6     7   ar
     7     7     8    1
     8     8     9    1
     9     9    10    2
    10    10    11    1
    11    11    12   ar
    12    12    13   ar
    13    13    14   ar
    14    14    15   ar
    15     9    16    1
    16    16    17   ar
    17    17    18   ar
    18    18    19   ar
    19    19    20   ar
    20    20    21   ar
    21    21    22   ar
    22    22    23   ar
    23    23    24   ar
    24    24    25   ar
    25    25    26   ar
    26    26    27   ar
    27    27    28   ar
    28    28    29   ar
    29    29    30   ar
    30    30    31   ar
    31    31    32   ar
    32    15     1    1
    33    20    16   ar
    34    26    21   ar
    35    32    27   ar
    36    15     4   ar
    37    32    19   ar
    38    14     6   ar
    39    11     7   ar
    40     1    33    1
    41     1    34    1
    42     2    35    1
    43     3    36    1
    44     8    37    1
    45     8    38    1
    46    10    39    1
    47    13    40    1
    48    18    41    1
    49    22    42    1
    50    23    43    1
    51    24    44    1
    52    25    45    1
    53    28    46    1
    54    29    47    1
    55    30    48    1
    56    31    49    1
