@<TRIPOS>MOLECULE
*****
 34 39 0 0 0
SMALL
GASTEIGER

@<TRIPOS>ATOM
      1 C          -4.8045    0.0913    0.0950 C.3     1  UNL1       -0.0075
      2 C          -5.4241    1.4242    0.5418 C.2     1  UNL1       -0.0786
      3 C          -4.4846    2.3533    0.8346 C.2     1  UNL1       -0.0513
      4 C          -3.2361    1.7367    0.6150 C.ar    1  UNL1        0.0167
      5 S          -1.6430    2.2697    0.7687 S.2     1  UNL1       -0.0848
      6 C          -1.0742    0.7450    0.2596 C.ar    1  UNL1        0.0637
      7 C           0.3965    0.2770    0.0857 C.ar    1  UNL1        0.1507
      8 O           1.5603    0.9477    0.2906 O.2     1  UNL1       -0.4522
      9 C           2.5918    0.0733   -0.0109 C.ar    1  UNL1        0.1524
     10 C           2.0682   -1.1566   -0.4083 C.ar    1  UNL1       -0.0059
     11 C           0.6927   -0.9914   -0.3354 C.ar    1  UNL1        0.0327
     12 C          -0.4080   -1.8370   -0.5987 C.ar    1  UNL1        0.0312
     13 C          -0.4096   -3.1322   -1.0246 C.ar    1  UNL1        0.1001
     14 O          -1.7202   -3.5446   -1.1425 O.2     1  UNL1       -0.4698
     15 C          -2.5300   -2.4871   -0.7838 C.ar    1  UNL1        0.1000
     16 C          -1.7352   -1.4303   -0.4469 C.ar    1  UNL1        0.0291
     17 C          -2.1108   -0.1267   -0.0131 C.ar    1  UNL1        0.0075
     18 C          -3.3641    0.4315    0.1874 C.ar    1  UNL1       -0.0209
     19 C           3.9617    0.4658    0.0996 C.ar    1  UNL1        0.0821
     20 C           5.1298   -0.2288   -0.1447 C.ar    1  UNL1       -0.0334
     21 C           6.2137    0.6437    0.1276 C.ar    1  UNL1       -0.0437
     22 C           5.6801    1.8470    0.5306 C.ar    1  UNL1        0.0023
     23 N           4.3149    1.7287    0.5102 N.ar    1  UNL1       -0.3583
     24 H          -5.1054   -0.1522   -0.9276 H       1  UNL1        0.0356
     25 H          -5.0823   -0.7140    0.7805 H       1  UNL1        0.0356
     26 H          -6.4907    1.5835    0.6086 H       1  UNL1        0.0576
     27 H          -4.6439    3.3670    1.1702 H       1  UNL1        0.0626
     28 H           2.6376   -2.0259   -0.7019 H       1  UNL1        0.0662
     29 H           0.3381   -3.8700   -1.2774 H       1  UNL1        0.1036
     30 H          -3.5920   -2.6783   -0.8323 H       1  UNL1        0.1036
     31 H           5.2030   -1.2540   -0.4829 H       1  UNL1        0.0640
     32 H           7.2684    0.4172    0.0388 H       1  UNL1        0.0633
     33 H           6.1505    2.7742    0.8292 H       1  UNL1        0.0807
     34 H           3.6515    2.4523    0.7572 H       1  UNL1        0.1654
@<TRIPOS>BOND
     1     1     2    1
     2     2     3    2
     3     3     4    1
     4     4     5   ar
     5     5     6   ar
     6     6     7   ar
     7     7     8   ar
     8     8     9   ar
     9     9    10   ar
    10    10    11   ar
    11    11    12   ar
    12    12    13   ar
    13    13    14   ar
    14    14    15   ar
    15    15    16   ar
    16    16    17   ar
    17    17    18   ar
    18     9    19    1
    19    19    20   ar
    20    20    21   ar
    21    21    22   ar
    22    22    23   ar
    23    18     1    1
    24    23    19   ar
    25    18     4   ar
    26    17     6   ar
    27    11     7   ar
    28    16    12   ar
    29     1    24    1
    30     1    25    1
    31     2    26    1
    32     3    27    1
    33    10    28    1
    34    13    29    1
    35    15    30    1
    36    20    31    1
    37    21    32    1
    38    22    33    1
    39    23    34    1
