@<TRIPOS>MOLECULE
*****
 42 48 0 0 0
SMALL
GASTEIGER

@<TRIPOS>ATOM
      1 C          -0.6268    1.0716   -0.9839 C.3     1  UNL1        0.0000
      2 C           0.7549    0.5475   -0.5707 C.2     1  UNL1        0.0000
      3 C           0.6899   -0.4362    0.3646 C.2     1  UNL1        0.0000
      4 SI          2.3063   -1.0531    0.8535 Si      1  UNL1        0.0000
      5 C           3.0743    0.2159   -0.3931 C.2     1  UNL1        0.0000
      6 C           2.0837    0.9181   -0.9998 C.2     1  UNL1        0.0000
      7 C           4.4742    0.3565   -0.6079 C.ar    1  UNL1        0.0000
      8 S           5.1045    1.5440   -1.7643 S.2     1  UNL1        0.0000
      9 C           6.7576    1.1490   -1.4886 C.ar    1  UNL1        0.0000
     10 C           6.7903    0.1725   -0.5699 C.ar    1  UNL1        0.0000
     11 O           7.9153   -0.4161   -0.0808 O.2     1  UNL1        0.0000
     12 C           7.3437   -1.3124    0.7976 C.ar    1  UNL1        0.0000
     13 C           5.9448   -1.2639    0.8336 C.ar    1  UNL1        0.0000
     14 C           5.5751   -0.2603   -0.0908 C.ar    1  UNL1        0.0000
     15 C          -0.6601   -0.6211    0.6208 C.ar    1  UNL1        0.0000
     16 N          -1.3911   -1.4182    1.4198 N.ar    1  UNL1        0.0000
     17 C          -2.7323   -1.1068    1.2061 C.ar    1  UNL1        0.0000
     18 C          -3.8712   -1.6607    1.7997 C.ar    1  UNL1        0.0000
     19 C          -5.1210   -1.1683    1.4095 C.ar    1  UNL1        0.0000
     20 C          -5.2493   -0.1512    0.4544 C.ar    1  UNL1        0.0000
     21 C          -6.5105    0.3334    0.0724 C.ar    1  UNL1        0.0000
     22 C          -6.6304    1.3479   -0.8807 C.ar    1  UNL1        0.0000
     23 C          -5.4923    1.8950   -1.4679 C.ar    1  UNL1        0.0000
     24 C          -4.2278    1.4305   -1.1052 C.ar    1  UNL1        0.0000
     25 C          -4.0922    0.4070   -0.1446 C.ar    1  UNL1        0.0000
     26 C          -2.8093   -0.0797    0.2383 C.ar    1  UNL1        0.0000
     27 C          -1.4744    0.2028   -0.1102 C.ar    1  UNL1        0.0000
     28 H          -0.8188    0.8921   -2.0452 H       1  UNL1        0.0000
     29 H          -0.7402    2.1307   -0.7373 H       1  UNL1        0.0000
     30 H           2.6916   -0.7444    2.2559 H       1  UNL1        0.0000
     31 H           2.5853   -2.4560    0.4480 H       1  UNL1        0.0000
     32 H           2.2189    1.6938   -1.7420 H       1  UNL1        0.0000
     33 H           7.5858    1.6285   -1.9891 H       1  UNL1        0.0000
     34 H           8.0612   -1.9226    1.3308 H       1  UNL1        0.0000
     35 H           5.3232   -1.8876    1.4577 H       1  UNL1        0.0000
     36 H          -1.0552   -2.1201    2.0641 H       1  UNL1        0.0000
     37 H          -3.7967   -2.4492    2.5417 H       1  UNL1        0.0000
     38 H          -6.0099   -1.5966    1.8691 H       1  UNL1        0.0000
     39 H          -7.4144   -0.0775    0.5164 H       1  UNL1        0.0000
     40 H          -7.6150    1.7106   -1.1640 H       1  UNL1        0.0000
     41 H          -5.5884    2.6841   -2.2090 H       1  UNL1        0.0000
     42 H          -3.3533    1.8702   -1.5747 H       1  UNL1        0.0000
@<TRIPOS>BOND
     1     1     2    1
     2     2     3    2
     3     3     4    1
     4     4     5    1
     5     5     6    2
     6     5     7    1
     7     7     8   ar
     8     8     9   ar
     9     9    10   ar
    10    10    11   ar
    11    11    12   ar
    12    12    13   ar
    13    13    14   ar
    14     3    15    1
    15    15    16   ar
    16    16    17   ar
    17    17    18   ar
    18    18    19   ar
    19    19    20   ar
    20    20    21   ar
    21    21    22   ar
    22    22    23   ar
    23    23    24   ar
    24    24    25   ar
    25    25    26   ar
    26    26    27   ar
    27    27     1    1
    28     6     2    1
    29    14     7   ar
    30    27    15   ar
    31    14    10   ar
    32    26    17   ar
    33    25    20   ar
    34     1    28    1
    35     1    29    1
    36     4    30    1
    37     4    31    1
    38     6    32    1
    39     9    33    1
    40    12    34    1
    41    13    35    1
    42    16    36    1
    43    18    37    1
    44    19    38    1
    45    21    39    1
    46    22    40    1
    47    23    41    1
    48    24    42    1
