@<TRIPOS>MOLECULE
*****
 36 41 0 0 0
SMALL
GASTEIGER

@<TRIPOS>ATOM
      1 C          -3.4020   -0.8823    1.3706 C.3     1  UNL1        0.0000
      2 C          -4.3421   -0.2581    0.3302 C.2     1  UNL1        0.0000
      3 C          -3.6778    0.2954   -0.7208 C.2     1  UNL1        0.0000
      4 SI         -4.7705    1.0306   -1.9519 Si      1  UNL1        0.0000
      5 C          -6.2281    0.4742   -0.8277 C.2     1  UNL1        0.0000
      6 C          -5.7804   -0.1611    0.2771 C.2     1  UNL1        0.0000
      7 C          -2.3307    0.0881   -0.4636 C.ar    1  UNL1        0.0000
      8 N          -1.1714    0.3756   -1.0844 N.ar    1  UNL1        0.0000
      9 C          -0.1399   -0.1158   -0.2866 C.ar    1  UNL1        0.0000
     10 C           1.2473   -0.0696   -0.4883 C.ar    1  UNL1        0.0000
     11 C           2.0868   -0.6557    0.4761 C.ar    1  UNL1        0.0000
     12 C           1.5264   -1.2605    1.6097 C.ar    1  UNL1        0.0000
     13 C           0.1389   -1.3021    1.8087 C.ar    1  UNL1        0.0000
     14 C          -0.7094   -0.7241    0.8508 C.ar    1  UNL1        0.0000
     15 C          -2.0961   -0.5772    0.7109 C.ar    1  UNL1        0.0000
     16 C           3.5373   -0.6083    0.2889 C.ar    1  UNL1        0.0000
     17 S           4.5225   -2.0430    0.4624 S.2     1  UNL1        0.0000
     18 C           6.0000   -1.2201    0.0805 C.ar    1  UNL1        0.0000
     19 C           5.6961    0.0673   -0.1593 C.ar    1  UNL1        0.0000
     20 O           6.5693    1.0553   -0.4943 O.2     1  UNL1        0.0000
     21 C           5.6883    2.1168   -0.5980 C.ar    1  UNL1        0.0000
     22 C           4.3525    1.7820   -0.3403 C.ar    1  UNL1        0.0000
     23 C           4.3699    0.4051   -0.0510 C.ar    1  UNL1        0.0000
     24 H          -3.5692   -1.9588    1.4636 H       1  UNL1        0.0000
     25 H          -3.4941   -0.3851    2.3400 H       1  UNL1        0.0000
     26 H          -4.8038    0.3238   -3.2572 H       1  UNL1        0.0000
     27 H          -4.7007    2.5112   -2.0408 H       1  UNL1        0.0000
     28 H          -7.2491    0.6775   -1.1078 H       1  UNL1        0.0000
     29 H          -6.4163   -0.5635    1.0540 H       1  UNL1        0.0000
     30 H          -1.0479    0.8550   -1.9651 H       1  UNL1        0.0000
     31 H           1.6588    0.3966   -1.3784 H       1  UNL1        0.0000
     32 H           2.1677   -1.7043    2.3688 H       1  UNL1        0.0000
     33 H          -0.2711   -1.7755    2.6957 H       1  UNL1        0.0000
     34 H           6.9660   -1.7021    0.0530 H       1  UNL1        0.0000
     35 H           6.1622    3.0537   -0.8605 H       1  UNL1        0.0000
     36 H           3.5108    2.4590   -0.3587 H       1  UNL1        0.0000
@<TRIPOS>BOND
     1     1     2    1
     2     2     3    2
     3     3     4    1
     4     4     5    1
     5     5     6    2
     6     3     7    1
     7     7     8   ar
     8     8     9   ar
     9     9    10   ar
    10    10    11   ar
    11    11    12   ar
    12    12    13   ar
    13    13    14   ar
    14    14    15   ar
    15    11    16    1
    16    16    17   ar
    17    17    18   ar
    18    18    19   ar
    19    19    20   ar
    20    20    21   ar
    21    21    22   ar
    22    22    23   ar
    23    15     1    1
    24    23    16   ar
    25     6     2    1
    26    15     7   ar
    27    23    19   ar
    28    14     9   ar
    29     1    24    1
    30     1    25    1
    31     4    26    1
    32     4    27    1
    33     5    28    1
    34     6    29    1
    35     8    30    1
    36    10    31    1
    37    12    32    1
    38    13    33    1
    39    18    34    1
    40    21    35    1
    41    22    36    1
