@<TRIPOS>MOLECULE
*****
 30 35 0 0 0
SMALL
GASTEIGER

@<TRIPOS>ATOM
      1 C          -0.7753    1.5942    0.4728 C.3     1  UNL1        0.0025
      2 C           0.1289    0.4455    0.1879 C.ar    1  UNL1        0.0111
      3 C          -0.5471   -0.6907   -0.1696 C.ar    1  UNL1        0.1421
      4 O           0.2112   -1.7600   -0.4390 O.2     1  UNL1       -0.4544
      5 C           1.5048   -1.3008   -0.2455 C.ar    1  UNL1        0.1366
      6 C           2.6898   -2.0461   -0.4018 C.ar    1  UNL1       -0.0181
      7 C           3.9383   -1.4274   -0.1650 C.ar    1  UNL1       -0.0500
      8 C           3.8487   -0.0832    0.2150 C.ar    1  UNL1       -0.0101
      9 C           4.9597    0.6823    0.4871 C.ar    1  UNL1       -0.0166
     10 S           4.5349    2.3018    0.9298 S.2     1  UNL1       -0.1039
     11 C           2.8448    1.9940    0.7609 C.ar    1  UNL1       -0.0159
     12 C           2.6780    0.6962    0.3818 C.ar    1  UNL1        0.0002
     13 C           1.4455    0.0394    0.1350 C.ar    1  UNL1        0.0325
     14 C          -1.9401   -0.4924   -0.1802 C.ar    1  UNL1        0.0492
     15 C          -2.1292    0.8742    0.2014 C.ar    1  UNL1       -0.0301
     16 C          -3.4033    1.4512    0.3047 C.ar    1  UNL1       -0.0554
     17 C          -4.5695    0.6987    0.0330 C.ar    1  UNL1       -0.0332
     18 C          -4.4176   -0.6710   -0.3514 C.ar    1  UNL1        0.1006
     19 N          -5.4112   -1.5238   -0.6435 N.ar    1  UNL1       -0.1908
     20 S          -4.6867   -2.9732   -1.0229 S.2     1  UNL1        0.1165
     21 N          -3.0804   -2.5901   -0.8355 N.ar    1  UNL1       -0.1901
     22 C          -3.0413   -1.3017   -0.4650 C.ar    1  UNL1        0.1108
     23 H          -0.6311    2.4185   -0.2299 H       1  UNL1        0.0363
     24 H          -0.7153    1.9195    1.5142 H       1  UNL1        0.0363
     25 H           2.6365   -3.0880   -0.7022 H       1  UNL1        0.0655
     26 H           4.8704   -1.9690   -0.2752 H       1  UNL1        0.0625
     27 H           6.0031    0.3994    0.4562 H       1  UNL1        0.0699
     28 H           2.1167    2.7697    0.9478 H       1  UNL1        0.0700
     29 H          -3.5047    2.4946    0.5982 H       1  UNL1        0.0621
     30 H          -5.5584    1.1380    0.1107 H       1  UNL1        0.0640
@<TRIPOS>BOND
     1     1     2    1
     2     2     3   ar
     3     3     4   ar
     4     4     5   ar
     5     5     6   ar
     6     6     7   ar
     7     7     8   ar
     8     8     9   ar
     9     9    10   ar
    10    10    11   ar
    11    11    12   ar
    12    12    13   ar
    13     3    14    1
    14    14    15   ar
    15    15    16   ar
    16    16    17   ar
    17    17    18   ar
    18    18    19   ar
    19    19    20   ar
    20    20    21   ar
    21    21    22   ar
    22    15     1    1
    23    22    18   ar
    24     2    13   ar
    25    22    14   ar
    26    13     5   ar
    27    12     8   ar
    28     1    23    1
    29     1    24    1
    30     6    25    1
    31     7    26    1
    32     9    27    1
    33    11    28    1
    34    16    29    1
    35    17    30    1
