@<TRIPOS>MOLECULE
*****
 38 43 0 0 0
SMALL
GASTEIGER

@<TRIPOS>ATOM
      1 C          -2.3351   -1.7970   -0.6490 C.3     1  UNL1        0.0000
      2 C          -0.9134   -1.4062   -0.2809 C.ar    1  UNL1        0.0000
      3 C           0.3699   -1.9532   -0.1479 C.ar    1  UNL1        0.0000
      4 C           1.2195   -0.9125    0.2441 C.ar    1  UNL1        0.0000
      5 N           0.4508    0.2414    0.3754 N.ar    1  UNL1        0.0000
      6 C          -0.8157   -0.0696    0.0491 C.ar    1  UNL1        0.0000
      7 C          -2.0822    0.5252   -0.0553 C.ar    1  UNL1        0.0000
      8 N          -2.6776    1.7329    0.1176 N.ar    1  UNL1        0.0000
      9 C          -4.0026    1.5362   -0.1848 C.ar    1  UNL1        0.0000
     10 C          -5.0468    2.4872   -0.1592 C.2     1  UNL1        0.0000
     11 C          -6.2152    1.9092   -0.5201 C.2     1  UNL1        0.0000
     12 SI         -6.0050    0.0068   -0.9309 Si      1  UNL1        0.0000
     13 C          -4.2038    0.2104   -0.5377 C.ar    1  UNL1        0.0000
     14 C          -2.9961   -0.4451   -0.4597 C.ar    1  UNL1        0.0000
     15 C           2.6371   -0.9368    0.5484 C.ar    1  UNL1        0.0000
     16 C           3.2618   -1.9363    1.3346 C.ar    1  UNL1        0.0000
     17 C           4.6651   -1.9496    1.6568 C.ar    1  UNL1        0.0000
     18 C           5.5904   -0.9728    1.2225 C.ar    1  UNL1        0.0000
     19 C           4.9586   -0.0133    0.4421 C.ar    1  UNL1        0.0000
     20 C           5.5683    1.0557   -0.1612 C.ar    1  UNL1        0.0000
     21 N           4.5912    1.7271   -0.8646 N.ar    1  UNL1        0.0000
     22 C           3.3711    1.1001   -0.7092 C.ar    1  UNL1        0.0000
     23 C           3.5668    0.0173    0.1157 C.ar    1  UNL1        0.0000
     24 H          -2.4014   -2.1351   -1.6862 H       1  UNL1        0.0000
     25 H          -2.7375   -2.5414    0.0427 H       1  UNL1        0.0000
     26 H           0.6710   -2.9779   -0.3204 H       1  UNL1        0.0000
     27 H           0.8018    1.1385    0.6788 H       1  UNL1        0.0000
     28 H          -2.2407    2.5956    0.4097 H       1  UNL1        0.0000
     29 H          -4.9261    3.5277    0.1112 H       1  UNL1        0.0000
     30 H          -7.1896    2.3626   -0.5988 H       1  UNL1        0.0000
     31 H          -6.7798   -0.8070    0.0403 H       1  UNL1        0.0000
     32 H          -6.3195   -0.2370   -2.3617 H       1  UNL1        0.0000
     33 H           2.6465   -2.7422    1.7357 H       1  UNL1        0.0000
     34 H           5.0339   -2.7681    2.2760 H       1  UNL1        0.0000
     35 H           6.6425   -0.9968    1.4661 H       1  UNL1        0.0000
     36 H           6.5942    1.3972   -0.1759 H       1  UNL1        0.0000
     37 H           4.7498    2.5494   -1.4323 H       1  UNL1        0.0000
     38 H           2.4980    1.4773   -1.2230 H       1  UNL1        0.0000
@<TRIPOS>BOND
     1     1     2    1
     2     2     3   ar
     3     3     4   ar
     4     4     5   ar
     5     5     6   ar
     6     6     7    1
     7     7     8   ar
     8     8     9   ar
     9     9    10    1
    10    10    11    2
    11    11    12    1
    12    12    13    1
    13    13    14   ar
    14     4    15    1
    15    15    16   ar
    16    16    17   ar
    17    17    18   ar
    18    18    19   ar
    19    19    20   ar
    20    20    21   ar
    21    21    22   ar
    22    22    23   ar
    23    14     1    1
    24    23    15   ar
    25     6     2   ar
    26    14     7   ar
    27    23    19   ar
    28    13     9   ar
    29     1    24    1
    30     1    25    1
    31     3    26    1
    32     5    27    1
    33     8    28    1
    34    10    29    1
    35    11    30    1
    36    12    31    1
    37    12    32    1
    38    16    33    1
    39    17    34    1
    40    18    35    1
    41    20    36    1
    42    21    37    1
    43    22    38    1
