@<TRIPOS>MOLECULE
*****
 33 38 0 0 0
SMALL
GASTEIGER

@<TRIPOS>ATOM
      1 C          -0.1744   -0.3405    1.7542 C.3     1  UNL1        0.0009
      2 C           0.9856   -0.3464    0.8051 C.ar    1  UNL1       -0.0171
      3 C           2.3709   -0.5715    0.8090 C.ar    1  UNL1       -0.0303
      4 C           2.8176   -0.3924   -0.5027 C.ar    1  UNL1        0.0725
      5 N           1.7205   -0.0643   -1.2872 N.ar    1  UNL1       -0.3523
      6 C           0.6389   -0.0434   -0.4826 C.ar    1  UNL1        0.0529
      7 C          -0.7501    0.1993   -0.5751 C.ar    1  UNL1        0.0308
      8 C          -1.2864    0.0351    0.7351 C.ar    1  UNL1       -0.0226
      9 C          -2.6648    0.2059    1.0089 C.ar    1  UNL1        0.0065
     10 C          -3.2238    0.0527    2.2802 C.ar    1  UNL1        0.0356
     11 N          -4.5379    0.2094    2.5733 N.ar    1  UNL1       -0.2626
     12 C          -5.3629    0.5381    1.5564 C.ar    1  UNL1        0.0282
     13 C          -4.9433    0.7201    0.2522 C.ar    1  UNL1       -0.0337
     14 C          -3.5781    0.5537   -0.0333 C.ar    1  UNL1        0.0135
     15 C          -3.0525    0.7253   -1.3727 C.ar    1  UNL1        0.1083
     16 N          -3.7438    1.0498   -2.4807 N.ar    1  UNL1       -0.1901
     17 S          -2.6472    1.1112   -3.7277 S.2     1  UNL1        0.1165
     18 N          -1.2369    0.7305   -2.9341 N.ar    1  UNL1       -0.1901
     19 C          -1.5757    0.5391   -1.6493 C.ar    1  UNL1        0.1098
     20 C           4.1533   -0.5104   -1.0154 C.ar    1  UNL1        0.1243
     21 N           5.1688   -0.8235   -0.2377 N.ar    1  UNL1       -0.2459
     22 C           6.3316   -0.8695   -0.9806 C.ar    1  UNL1        0.0355
     23 C           6.1919   -0.5901   -2.3220 C.ar    1  UNL1       -0.0042
     24 S           4.5479   -0.2573   -2.6715 S.2     1  UNL1       -0.0742
     25 H          -0.3554   -1.3301    2.1808 H       1  UNL1        0.0362
     26 H          -0.0698    0.4332    2.5189 H       1  UNL1        0.0362
     27 H           3.0018   -0.8347    1.6491 H       1  UNL1        0.0642
     28 H           1.7364    0.1239   -2.2821 H       1  UNL1        0.1660
     29 H          -2.6142   -0.2111    3.1409 H       1  UNL1        0.0836
     30 H          -6.4085    0.6553    1.8284 H       1  UNL1        0.0830
     31 H          -5.6567    0.9841   -0.5217 H       1  UNL1        0.0639
     32 H           7.2643   -1.1148   -0.4874 H       1  UNL1        0.0835
     33 H           6.9529   -0.5666   -3.0883 H       1  UNL1        0.0709
@<TRIPOS>BOND
     1     1     2    1
     2     2     3   ar
     3     3     4   ar
     4     4     5   ar
     5     5     6   ar
     6     6     7    1
     7     7     8   ar
     8     8     9   ar
     9     9    10   ar
    10    10    11   ar
    11    11    12   ar
    12    12    13   ar
    13    13    14   ar
    14    14    15   ar
    15    15    16   ar
    16    16    17   ar
    17    17    18   ar
    18    18    19   ar
    19     4    20    1
    20    20    21   ar
    21    21    22   ar
    22    22    23   ar
    23    23    24   ar
    24     8     1    1
    25    14     9   ar
    26    19    15   ar
    27    24    20   ar
    28     6     2   ar
    29    19     7   ar
    30     1    25    1
    31     1    26    1
    32     3    27    1
    33     5    28    1
    34    10    29    1
    35    12    30    1
    36    13    31    1
    37    22    32    1
    38    23    33    1
