@<TRIPOS>MOLECULE
*****
 38 44 0 0 0
SMALL
GASTEIGER

@<TRIPOS>ATOM
      1 C          -1.5751   -2.1209   -1.3044 C.3     1  UNL1        0.0037
      2 C          -0.2209   -1.5742   -0.9461 C.ar    1  UNL1       -0.0171
      3 C           1.1347   -1.8911   -1.1292 C.ar    1  UNL1       -0.0318
      4 C           1.8810   -0.8939   -0.4950 C.ar    1  UNL1        0.0545
      5 N           0.9853    0.0096    0.0613 N.ar    1  UNL1       -0.3535
      6 C          -0.2641   -0.4131   -0.2184 C.ar    1  UNL1        0.0515
      7 C          -1.6047   -0.0312    0.0059 C.ar    1  UNL1        0.0163
      8 C          -2.4198   -1.0242   -0.6262 C.ar    1  UNL1        0.0096
      9 C          -3.8119   -0.8804   -0.5516 C.ar    1  UNL1        0.1396
     10 O          -4.7722   -1.7013   -1.0772 O.2     1  UNL1       -0.4626
     11 C          -5.9851   -1.1554   -0.7485 C.ar    1  UNL1        0.0932
     12 C          -5.8415    0.0094   -0.0163 C.ar    1  UNL1       -0.0154
     13 C          -4.4646    0.1584    0.0927 C.ar    1  UNL1        0.0311
     14 C          -3.6604    1.1514    0.7245 C.ar    1  UNL1        0.0312
     15 C          -3.9688    2.2727    1.4242 C.ar    1  UNL1        0.1001
     16 O          -2.7811    2.8568    1.8039 O.2     1  UNL1       -0.4698
     17 C          -1.7528    2.0740    1.3246 C.ar    1  UNL1        0.1000
     18 C          -2.2630    0.9984    0.6443 C.ar    1  UNL1        0.0300
     19 C           3.3054   -0.7385   -0.3806 C.ar    1  UNL1        0.0447
     20 S           4.4217   -1.8862   -1.0827 S.2     1  UNL1       -0.0925
     21 C           5.8313   -1.0407   -0.5378 C.ar    1  UNL1        0.0002
     22 C           5.4205    0.0498    0.1373 C.ar    1  UNL1        0.0542
     23 N           6.2200    0.9832    0.7294 N.ar    1  UNL1       -0.3602
     24 C           5.2721    1.8531    1.2600 C.ar    1  UNL1        0.0028
     25 C           3.9578    1.4237    0.9758 C.ar    1  UNL1       -0.0355
     26 C           4.0542    0.2169    0.2245 C.ar    1  UNL1        0.0158
     27 H          -1.7420   -2.1305   -2.3840 H       1  UNL1        0.0363
     28 H          -1.7595   -3.0952   -0.8460 H       1  UNL1        0.0363
     29 H           1.5365   -2.7445   -1.6597 H       1  UNL1        0.0642
     30 H           1.2363    0.8357    0.5829 H       1  UNL1        0.1659
     31 H          -6.8438   -1.7080   -1.1047 H       1  UNL1        0.1030
     32 H          -6.6365    0.6323    0.3654 H       1  UNL1        0.0655
     33 H          -4.8693    2.7823    1.7337 H       1  UNL1        0.1036
     34 H          -0.7605    2.4301    1.5591 H       1  UNL1        0.1036
     35 H           6.8337   -1.3888   -0.7425 H       1  UNL1        0.0714
     36 H           7.2320    1.0097    0.7585 H       1  UNL1        0.1653
     37 H           5.6089    2.7243    1.8075 H       1  UNL1        0.0807
     38 H           3.0660    1.9462    1.2902 H       1  UNL1        0.0639
@<TRIPOS>BOND
     1     1     2    1
     2     2     3   ar
     3     3     4   ar
     4     4     5   ar
     5     5     6   ar
     6     6     7    1
     7     7     8   ar
     8     8     9   ar
     9     9    10   ar
    10    10    11   ar
    11    11    12   ar
    12    12    13   ar
    13    13    14   ar
    14    14    15   ar
    15    15    16   ar
    16    16    17   ar
    17    17    18   ar
    18     4    19    1
    19    19    20   ar
    20    20    21   ar
    21    21    22   ar
    22    22    23   ar
    23    23    24   ar
    24    24    25   ar
    25    25    26   ar
    26     8     1    1
    27    13     9   ar
    28    18    14   ar
    29    26    19   ar
    30     6     2   ar
    31    18     7   ar
    32    26    22   ar
    33     1    27    1
    34     1    28    1
    35     3    29    1
    36     5    30    1
    37    11    31    1
    38    12    32    1
    39    15    33    1
    40    17    34    1
    41    21    35    1
    42    23    36    1
    43    24    37    1
    44    25    38    1
