@<TRIPOS>MOLECULE
*****
 48 55 0 0 0
SMALL
GASTEIGER

@<TRIPOS>ATOM
      1 SI         -0.3140   -4.0460   -2.0979 Si      1  UNL1        0.0000
      2 C           1.2111   -3.0837   -1.6212 C.2     1  UNL1        0.0000
      3 C           0.8824   -1.9186   -1.0290 C.ar    1  UNL1        0.0000
      4 C           1.8076   -0.8864   -0.6071 C.ar    1  UNL1        0.0000
      5 C           3.2559   -1.0123   -0.4131 C.2     1  UNL1        0.0000
      6 C           3.8721    0.0523    0.1381 C.2     1  UNL1        0.0000
      7 SI          2.6178    1.4105    0.4777 Si      1  UNL1        0.0000
      8 C           1.2736    0.3252   -0.2883 C.ar    1  UNL1        0.0000
      9 C          -0.1771    0.6414   -0.2732 C.ar    1  UNL1        0.0000
     10 C          -1.0572   -0.4155   -0.2588 C.ar    1  UNL1        0.0000
     11 C          -2.4412   -0.1929    0.2603 C.ar    1  UNL1        0.0000
     12 C          -3.2287   -1.1621    0.9275 C.ar    1  UNL1        0.0000
     13 C          -2.7966   -2.3951    1.3657 C.ar    1  UNL1        0.0000
     14 S          -4.0443   -3.3035    2.1224 S.2     1  UNL1        0.0000
     15 C          -5.1597   -2.0094    1.9869 C.ar    1  UNL1        0.0000
     16 C          -4.5856   -0.9234    1.3728 C.ar    1  UNL1        0.0000
     17 C          -5.2708    0.2790    1.2422 C.ar    1  UNL1        0.0000
     18 C          -4.4459    1.2866    0.7041 C.ar    1  UNL1        0.0000
     19 C          -3.0884    1.0829    0.2636 C.ar    1  UNL1        0.0000
     20 C          -2.2282    2.2217   -0.1228 C.ar    1  UNL1        0.0000
     21 C          -2.6502    3.4872   -0.3313 C.2     1  UNL1        0.0000
     22 SI         -1.2542    4.6003   -0.8485 Si      1  UNL1        0.0000
     23 C          -0.1348    3.1105   -0.7637 C.2     1  UNL1        0.0000
     24 C          -0.7717    2.0001   -0.3284 C.ar    1  UNL1        0.0000
     25 C          -0.5705   -1.6827   -0.8549 C.ar    1  UNL1        0.0000
     26 C          -1.3388   -2.6502   -1.4021 C.2     1  UNL1        0.0000
     27 C           5.2550    0.1681    0.4317 C.ar    1  UNL1        0.0000
     28 C           6.0755    1.2892    0.5000 C.ar    1  UNL1        0.0000
     29 N           7.4002    1.0799    0.8333 N.ar    1  UNL1        0.0000
     30 C           7.5959   -0.2041    1.0171 C.ar    1  UNL1        0.0000
     31 S           6.2336   -1.2143    0.8070 S.2     1  UNL1        0.0000
     32 H          -0.4596   -4.1859   -3.5666 H       1  UNL1        0.0000
     33 H          -0.4565   -5.2972   -1.3152 H       1  UNL1        0.0000
     34 H           2.1970   -3.4449   -1.8639 H       1  UNL1        0.0000
     35 H           3.7577   -1.9284   -0.6989 H       1  UNL1        0.0000
     36 H           2.4235    1.6441    1.9319 H       1  UNL1        0.0000
     37 H           2.9477    2.6284   -0.3102 H       1  UNL1        0.0000
     38 H          -1.8155   -2.8412    1.2963 H       1  UNL1        0.0000
     39 H          -6.1564   -2.1115    2.3938 H       1  UNL1        0.0000
     40 H          -6.2813    0.4678    1.5792 H       1  UNL1        0.0000
     41 H          -4.8753    2.2861    0.6570 H       1  UNL1        0.0000
     42 H          -3.6501    3.8804   -0.2595 H       1  UNL1        0.0000
     43 H          -1.4133    5.1136   -2.2298 H       1  UNL1        0.0000
     44 H          -0.9215    5.6140    0.1807 H       1  UNL1        0.0000
     45 H           0.8748    3.2114   -1.1190 H       1  UNL1        0.0000
     46 H          -2.4144   -2.6712   -1.4788 H       1  UNL1        0.0000
     47 H           5.7572    2.3069    0.3062 H       1  UNL1        0.0000
     48 H           8.5632   -0.6073    1.2866 H       1  UNL1        0.0000
@<TRIPOS>BOND
     1     1     2    1
     2     2     3    2
     3     3     4   ar
     4     4     5    1
     5     5     6    2
     6     6     7    1
     7     7     8    1
     8     8     9   ar
     9     9    10   ar
    10    10    11   ar
    11    11    12   ar
    12    12    13   ar
    13    13    14   ar
    14    14    15   ar
    15    15    16   ar
    16    16    17   ar
    17    17    18   ar
    18    18    19   ar
    19    19    20   ar
    20    20    21    2
    21    21    22    1
    22    22    23    1
    23    23    24    2
    24    10    25   ar
    25    25    26    2
    26     6    27    1
    27    27    28   ar
    28    28    29   ar
    29    29    30   ar
    30    30    31   ar
    31    26     1    1
    32    31    27   ar
    33    25     3   ar
    34     8     4   ar
    35    24     9   ar
    36    19    11   ar
    37    24    20   ar
    38    16    12   ar
    39     1    32    1
    40     1    33    1
    41     2    34    1
    42     5    35    1
    43     7    36    1
    44     7    37    1
    45    13    38    1
    46    15    39    1
    47    17    40    1
    48    18    41    1
    49    21    42    1
    50    22    43    1
    51    22    44    1
    52    23    45    1
    53    26    46    1
    54    28    47    1
    55    30    48    1
