@<TRIPOS>MOLECULE
*****
 43 49 0 0 0
SMALL
GASTEIGER

@<TRIPOS>ATOM
      1 C          -0.3602    1.7772    2.3586 C.3     1  UNL1        0.0002
      2 C          -1.4424    1.0612    1.6138 C.ar    1  UNL1       -0.0172
      3 C          -2.8385    0.9304    1.6222 C.ar    1  UNL1       -0.0322
      4 C          -3.1821    0.0566    0.5850 C.ar    1  UNL1        0.0508
      5 N          -1.9968   -0.3195   -0.0451 N.ar    1  UNL1       -0.3538
      6 C          -0.9729    0.2855    0.5907 C.ar    1  UNL1        0.0507
      7 C           0.4445    0.3693    0.5005 C.ar    1  UNL1        0.0027
      8 C           1.3564   -0.2159   -0.3524 C.ar    1  UNL1       -0.0440
      9 C           2.7387    0.0627   -0.1941 C.ar    1  UNL1       -0.0095
     10 C           3.1198    0.9540    0.8630 C.ar    1  UNL1       -0.0170
     11 C           4.4672    1.2590    1.0590 C.ar    1  UNL1       -0.0534
     12 C           5.4516    0.7101    0.2422 C.ar    1  UNL1       -0.0534
     13 C           5.1200   -0.1618   -0.7976 C.ar    1  UNL1       -0.0173
     14 C           6.1432   -0.6950   -1.6002 C.ar    1  UNL1       -0.0540
     15 C           5.8567   -1.5671   -2.6466 C.ar    1  UNL1       -0.0612
     16 C           4.5404   -1.9166   -2.9027 C.ar    1  UNL1       -0.0611
     17 C           3.5134   -1.3928   -2.1112 C.ar    1  UNL1       -0.0534
     18 C           3.7628   -0.5014   -1.0356 C.ar    1  UNL1       -0.0102
     19 C           2.1656    1.5380    1.7191 C.ar    1  UNL1       -0.0499
     20 C           0.8274    1.2451    1.5371 C.ar    1  UNL1       -0.0333
     21 C          -4.4881   -0.4289    0.1514 C.ar    1  UNL1        0.0445
     22 C          -4.7157   -1.7024   -0.3881 C.ar    1  UNL1        0.0389
     23 N          -5.9029   -2.2365   -0.8284 N.ar    1  UNL1       -0.2603
     24 C          -7.0561   -1.5115   -0.7588 C.ar    1  UNL1        0.0557
     25 C          -6.9923   -0.2079   -0.2283 C.ar    1  UNL1        0.1185
     26 N          -8.0215    0.6430   -0.0856 N.ar    1  UNL1       -0.1892
     27 S          -7.3926    2.0289    0.5740 S.2     1  UNL1        0.1165
     28 N          -5.7955    1.6114    0.7077 N.ar    1  UNL1       -0.1900
     29 C          -5.6703    0.3537    0.2423 C.ar    1  UNL1        0.1119
     30 H          -0.2947    1.4522    3.3997 H       1  UNL1        0.0362
     31 H          -0.4472    2.8624    2.2657 H       1  UNL1        0.0362
     32 H          -3.5338    1.4090    2.3006 H       1  UNL1        0.0642
     33 H          -1.9192   -0.9198   -0.8545 H       1  UNL1        0.1659
     34 H           0.9922   -0.8781   -1.1270 H       1  UNL1        0.0630
     35 H           4.7728    1.9336    1.8564 H       1  UNL1        0.0624
     36 H           6.4901    0.9753    0.4308 H       1  UNL1        0.0624
     37 H           7.1826   -0.4316   -1.4138 H       1  UNL1        0.0624
     38 H           6.6599   -1.9699   -3.2573 H       1  UNL1        0.0618
     39 H           4.3050   -2.5965   -3.7173 H       1  UNL1        0.0618
     40 H           2.5013   -1.7002   -2.3567 H       1  UNL1        0.0624
     41 H           2.4653    2.2125    2.5163 H       1  UNL1        0.0627
     42 H          -3.8869   -2.4043   -0.4814 H       1  UNL1        0.0837
     43 H          -7.9674   -1.9735   -1.1145 H       1  UNL1        0.0852
@<TRIPOS>BOND
     1     1     2    1
     2     2     3   ar
     3     3     4   ar
     4     4     5   ar
     5     5     6   ar
     6     6     7    1
     7     7     8   ar
     8     8     9   ar
     9     9    10   ar
    10    10    11   ar
    11    11    12   ar
    12    12    13   ar
    13    13    14   ar
    14    14    15   ar
    15    15    16   ar
    16    16    17   ar
    17    17    18   ar
    18    10    19   ar
    19    19    20   ar
    20     4    21    1
    21    21    22   ar
    22    22    23   ar
    23    23    24   ar
    24    24    25   ar
    25    25    26   ar
    26    26    27   ar
    27    27    28   ar
    28    28    29   ar
    29    20     1    1
    30    29    21   ar
    31     6     2   ar
    32    20     7   ar
    33    29    25   ar
    34    18     9   ar
    35    18    13   ar
    36     1    30    1
    37     1    31    1
    38     3    32    1
    39     5    33    1
    40     8    34    1
    41    11    35    1
    42    12    36    1
    43    14    37    1
    44    15    38    1
    45    16    39    1
    46    17    40    1
    47    19    41    1
    48    22    42    1
    49    24    43    1
