@<TRIPOS>MOLECULE
*****
 39 44 0 0 0
SMALL
GASTEIGER

@<TRIPOS>ATOM
      1 C           2.5675    1.8151   -0.5656 C.3     1  UNL1        0.0028
      2 C           1.2101    1.3709   -0.1093 C.ar    1  UNL1       -0.0156
      3 C          -0.0915    1.8719    0.0450 C.ar    1  UNL1       -0.0323
      4 C          -0.8725    0.8247    0.5412 C.ar    1  UNL1        0.0478
      5 N          -0.0503   -0.2836    0.7085 N.ar    1  UNL1       -0.3527
      6 C           1.1849    0.0650    0.3014 C.ar    1  UNL1        0.0692
      7 C           2.4689   -0.5240    0.1844 C.ar    1  UNL1        0.0919
      8 N           2.7745   -1.7785    0.5017 N.ar    1  UNL1       -0.2526
      9 C           4.0684   -2.1236    0.3061 C.ar    1  UNL1        0.0365
     10 C           5.0258   -1.2100   -0.2019 C.ar    1  UNL1        0.0076
     11 C           6.4265   -1.3891   -0.4743 C.ar    1  UNL1       -0.0455
     12 C           7.0289   -0.2552   -0.9677 C.ar    1  UNL1       -0.0231
     13 S           5.9315    1.0409   -1.1134 S.2     1  UNL1       -0.0963
     14 C           4.6236    0.0997   -0.5145 C.ar    1  UNL1        0.0263
     15 C           3.3016    0.4838   -0.3239 C.ar    1  UNL1       -0.0013
     16 C          -2.2919    0.7971    0.9024 C.ar    1  UNL1        0.0060
     17 C          -2.6987    1.5891    1.9873 C.ar    1  UNL1       -0.0520
     18 C          -4.0234    1.5854    2.4106 C.ar    1  UNL1       -0.0605
     19 C          -4.9575    0.7896    1.7527 C.ar    1  UNL1       -0.0540
     20 C          -4.5857   -0.0050    0.6573 C.ar    1  UNL1       -0.0173
     21 C          -5.5456   -0.7945    0.0017 C.ar    1  UNL1       -0.0540
     22 C          -5.2018   -1.5802   -1.0973 C.ar    1  UNL1       -0.0612
     23 C          -3.8931   -1.5826   -1.5602 C.ar    1  UNL1       -0.0611
     24 C          -2.9268   -0.8048   -0.9184 C.ar    1  UNL1       -0.0534
     25 C          -3.2401   -0.0067    0.2088 C.ar    1  UNL1       -0.0088
     26 H           2.9745    2.6078    0.0665 H       1  UNL1        0.0363
     27 H           2.5779    2.0821   -1.6250 H       1  UNL1        0.0363
     28 H          -0.4489    2.8689   -0.1779 H       1  UNL1        0.0642
     29 H          -0.3339   -1.1863    1.0679 H       1  UNL1        0.1660
     30 H           4.3301   -3.1453    0.5622 H       1  UNL1        0.0836
     31 H           6.9624   -2.3165   -0.3117 H       1  UNL1        0.0629
     32 H           8.0648   -0.1259   -1.2505 H       1  UNL1        0.0694
     33 H          -1.9735    2.2050    2.5152 H       1  UNL1        0.0624
     34 H          -4.3268    2.1982    3.2551 H       1  UNL1        0.0618
     35 H          -5.9884    0.7982    2.1010 H       1  UNL1        0.0624
     36 H          -6.5786   -0.7999    0.3433 H       1  UNL1        0.0624
     37 H          -5.9577   -2.1824   -1.5940 H       1  UNL1        0.0618
     38 H          -3.6194   -2.1832   -2.4236 H       1  UNL1        0.0618
     39 H          -1.9160   -0.8162   -1.3211 H       1  UNL1        0.0624
@<TRIPOS>BOND
     1     1     2    1
     2     2     3   ar
     3     3     4   ar
     4     4     5   ar
     5     5     6   ar
     6     6     7    1
     7     7     8   ar
     8     8     9   ar
     9     9    10   ar
    10    10    11   ar
    11    11    12   ar
    12    12    13   ar
    13    13    14   ar
    14    14    15   ar
    15     4    16    1
    16    16    17   ar
    17    17    18   ar
    18    18    19   ar
    19    19    20   ar
    20    20    21   ar
    21    21    22   ar
    22    22    23   ar
    23    23    24   ar
    24    24    25   ar
    25    15     1    1
    26    25    16   ar
    27     6     2   ar
    28    15     7   ar
    29    25    20   ar
    30    14    10   ar
    31     1    26    1
    32     1    27    1
    33     3    28    1
    34     5    29    1
    35     9    30    1
    36    11    31    1
    37    12    32    1
    38    17    33    1
    39    18    34    1
    40    19    35    1
    41    21    36    1
    42    22    37    1
    43    23    38    1
    44    24    39    1
