@<TRIPOS>MOLECULE
*****
 38 43 0 0 0
SMALL
GASTEIGER

@<TRIPOS>ATOM
      1 C           2.2643    2.2507   -0.2744 C.3     1  UNL1        0.0000
      2 C           0.9191    1.5707   -0.4733 C.ar    1  UNL1        0.0000
      3 C          -0.3993    1.8380   -0.8658 C.ar    1  UNL1        0.0000
      4 C          -1.0953    0.6283   -0.7798 C.ar    1  UNL1        0.0000
      5 N          -0.2135   -0.3617   -0.3595 N.ar    1  UNL1        0.0000
      6 C           0.9820    0.2246   -0.1757 C.ar    1  UNL1        0.0000
      7 C           2.2876   -0.1013    0.2224 C.ar    1  UNL1        0.0000
      8 O           2.9783   -1.1799    0.6227 O.2     1  UNL1        0.0000
      9 C           4.2496   -0.7032    0.8445 C.ar    1  UNL1        0.0000
     10 C           5.3455   -1.4396    1.2751 C.ar    1  UNL1        0.0000
     11 C           6.5268   -0.7121    1.4219 C.ar    1  UNL1        0.0000
     12 C           6.5379    0.6530    1.1397 C.ar    1  UNL1        0.0000
     13 N           5.4802    1.3872    0.7193 N.ar    1  UNL1        0.0000
     14 C           4.3369    0.6728    0.5793 C.ar    1  UNL1        0.0000
     15 C           3.0584    1.0493    0.1774 C.ar    1  UNL1        0.0000
     16 C          -2.4426    0.2509   -1.0540 C.ar    1  UNL1        0.0000
     17 C          -2.9305    0.5660   -2.2790 C.ar    1  UNL1        0.0000
     18 C          -4.2772    0.2107   -2.7228 C.ar    1  UNL1        0.0000
     19 C          -5.1346   -0.4639   -1.9359 C.ar    1  UNL1        0.0000
     20 C          -4.7101   -0.8319   -0.6017 C.ar    1  UNL1        0.0000
     21 C          -5.4717   -1.4800    0.2990 C.2     1  UNL1        0.0000
     22 SI         -4.5450   -1.7066    1.9068 Si      1  UNL1        0.0000
     23 C          -3.0849   -0.8264    1.1351 C.2     1  UNL1        0.0000
     24 C          -3.3469   -0.4667   -0.1392 C.ar    1  UNL1        0.0000
     25 H           2.6473    2.6589   -1.2131 H       1  UNL1        0.0000
     26 H           2.2125    3.0170    0.5032 H       1  UNL1        0.0000
     27 H          -0.8223    2.7863   -1.1704 H       1  UNL1        0.0000
     28 H          -0.4409   -1.3384   -0.2258 H       1  UNL1        0.0000
     29 H           5.2784   -2.4998    1.4794 H       1  UNL1        0.0000
     30 H           7.4354   -1.2048    1.7543 H       1  UNL1        0.0000
     31 H           7.4589    1.2216    1.2537 H       1  UNL1        0.0000
     32 H          -2.3175    1.0879   -3.0099 H       1  UNL1        0.0000
     33 H          -4.5651    0.5070   -3.7268 H       1  UNL1        0.0000
     34 H          -6.1304   -0.7244   -2.2754 H       1  UNL1        0.0000
     35 H          -6.4853   -1.8256    0.1747 H       1  UNL1        0.0000
     36 H          -4.2516   -3.1320    2.1923 H       1  UNL1        0.0000
     37 H          -5.1483   -0.9398    3.0231 H       1  UNL1        0.0000
     38 H          -2.1863   -0.6424    1.7014 H       1  UNL1        0.0000
@<TRIPOS>BOND
     1     1     2    1
     2     2     3   ar
     3     3     4   ar
     4     4     5   ar
     5     5     6   ar
     6     6     7    1
     7     7     8   ar
     8     8     9   ar
     9     9    10   ar
    10    10    11   ar
    11    11    12   ar
    12    12    13   ar
    13    13    14   ar
    14    14    15   ar
    15     4    16    1
    16    16    17   ar
    17    17    18   ar
    18    18    19   ar
    19    19    20   ar
    20    20    21    2
    21    21    22    1
    22    22    23    1
    23    23    24    2
    24    15     1    1
    25    24    16   ar
    26     6     2   ar
    27    15     7   ar
    28    24    20   ar
    29    14     9   ar
    30     1    25    1
    31     1    26    1
    32     3    27    1
    33     5    28    1
    34    10    29    1
    35    11    30    1
    36    12    31    1
    37    17    32    1
    38    18    33    1
    39    19    34    1
    40    21    35    1
    41    22    36    1
    42    22    37    1
    43    23    38    1
