@<TRIPOS>MOLECULE
*****
 40 46 0 0 0
SMALL
GASTEIGER

@<TRIPOS>ATOM
      1 C           1.4205   -1.8957    0.5858 C.3     1  UNL1        0.0000
      2 C           0.3984   -0.8162    0.1516 C.ar    1  UNL1        0.0000
      3 C          -1.0019   -1.0221   -0.0261 C.ar    1  UNL1        0.0000
      4 C          -1.9025    0.0176   -0.4269 C.ar    1  UNL1        0.0000
      5 C          -3.3288   -0.1732   -0.6337 C.ar    1  UNL1        0.0000
      6 C          -3.9784    0.1115   -1.8611 C.ar    1  UNL1        0.0000
      7 C          -5.3640   -0.0714   -2.0850 C.ar    1  UNL1        0.0000
      8 C          -6.2380   -0.5617   -1.1032 C.ar    1  UNL1        0.0000
      9 C          -5.6569   -0.8759    0.1476 C.ar    1  UNL1        0.0000
     10 N          -6.3175   -1.3585    1.2112 N.ar    1  UNL1        0.0000
     11 S          -5.1926   -1.5491    2.4156 S.2     1  UNL1        0.0000
     12 N          -3.8178   -1.0393    1.6428 N.ar    1  UNL1        0.0000
     13 C          -4.1763   -0.6839    0.3953 C.ar    1  UNL1        0.0000
     14 C          -1.2317    1.2472   -0.6093 C.ar    1  UNL1        0.0000
     15 C          -1.7437    2.4735   -0.9519 C.ar    1  UNL1        0.0000
     16 O          -0.7367    3.4011   -1.0125 O.2     1  UNL1        0.0000
     17 C           0.4341    2.7681   -0.6891 C.ar    1  UNL1        0.0000
     18 C           0.1754    1.4525   -0.4294 C.ar    1  UNL1        0.0000
     19 C           1.0315    0.4471   -0.0528 C.ar    1  UNL1        0.0000
     20 C           2.4061    0.2808    0.2139 C.ar    1  UNL1        0.0000
     21 N           3.5477    1.0214    0.2238 N.ar    1  UNL1        0.0000
     22 C           4.5456    0.1595    0.5980 C.ar    1  UNL1        0.0000
     23 C           5.9204    0.4397    0.7584 C.2     1  UNL1        0.0000
     24 C           6.5832   -0.6755    1.1413 C.2     1  UNL1        0.0000
     25 SI          5.3942   -2.2187    1.3208 Si      1  UNL1        0.0000
     26 C           4.0039   -1.0961    0.8145 C.ar    1  UNL1        0.0000
     27 C           2.6479   -1.0323    0.5750 C.ar    1  UNL1        0.0000
     28 H           1.4772   -2.6970   -0.1548 H       1  UNL1        0.0000
     29 H           1.1907   -2.2675    1.5872 H       1  UNL1        0.0000
     30 H          -1.4010   -2.0205    0.1545 H       1  UNL1        0.0000
     31 H          -3.3790    0.4848   -2.6942 H       1  UNL1        0.0000
     32 H          -5.7692    0.1767   -3.0667 H       1  UNL1        0.0000
     33 H          -7.2970   -0.6982   -1.2861 H       1  UNL1        0.0000
     34 H          -2.7310    2.8539   -1.1721 H       1  UNL1        0.0000
     35 H           1.3156    3.3917   -0.6894 H       1  UNL1        0.0000
     36 H           3.6423    2.0032    0.0031 H       1  UNL1        0.0000
     37 H           6.3750    1.4082    0.5980 H       1  UNL1        0.0000
     38 H           7.6351   -0.7911    1.3451 H       1  UNL1        0.0000
     39 H           5.3595   -2.6708    2.7349 H       1  UNL1        0.0000
     40 H           5.7597   -3.2590    0.3260 H       1  UNL1        0.0000
@<TRIPOS>BOND
     1     1     2    1
     2     2     3   ar
     3     3     4   ar
     4     4     5    1
     5     5     6   ar
     6     6     7   ar
     7     7     8   ar
     8     8     9   ar
     9     9    10   ar
    10    10    11   ar
    11    11    12   ar
    12    12    13   ar
    13     4    14   ar
    14    14    15   ar
    15    15    16   ar
    16    16    17   ar
    17    17    18   ar
    18    18    19   ar
    19    19    20    1
    20    20    21   ar
    21    21    22   ar
    22    22    23    1
    23    23    24    2
    24    24    25    1
    25    25    26    1
    26    26    27   ar
    27    27     1    1
    28    19     2   ar
    29    27    20   ar
    30    13     5   ar
    31    18    14   ar
    32    26    22   ar
    33    13     9   ar
    34     1    28    1
    35     1    29    1
    36     3    30    1
    37     6    31    1
    38     7    32    1
    39     8    33    1
    40    15    34    1
    41    17    35    1
    42    21    36    1
    43    23    37    1
    44    24    38    1
    45    25    39    1
    46    25    40    1
