@<TRIPOS>MOLECULE
*****
 42 48 0 0 0
SMALL
GASTEIGER

@<TRIPOS>ATOM
      1 C           0.3836    1.2202   -0.7794 C.3     1  UNL1        0.0000
      2 C          -0.9477    0.5338   -0.3845 C.ar    1  UNL1        0.0000
      3 C          -2.2538    1.0067   -0.7007 C.ar    1  UNL1        0.0000
      4 C          -3.4468    0.3196   -0.3038 C.ar    1  UNL1        0.0000
      5 C          -4.8068    0.7616   -0.6054 C.ar    1  UNL1        0.0000
      6 N          -5.8359   -0.0295   -0.8481 N.ar    1  UNL1        0.0000
      7 C          -6.9712    0.7159   -1.0913 C.ar    1  UNL1        0.0000
      8 C          -6.8099    2.0805   -1.0280 C.ar    1  UNL1        0.0000
      9 S          -5.1822    2.4497   -0.6523 S.2     1  UNL1        0.0000
     10 C          -3.1713   -0.8656    0.4189 C.ar    1  UNL1        0.0000
     11 C          -4.0501   -1.7703    0.9653 C.ar    1  UNL1        0.0000
     12 N          -3.3089   -2.7604    1.5773 N.ar    1  UNL1        0.0000
     13 C          -1.9598   -2.5034    1.4473 C.ar    1  UNL1        0.0000
     14 C          -1.8513   -1.3376    0.7366 C.ar    1  UNL1        0.0000
     15 C          -0.7137   -0.6656    0.3524 C.ar    1  UNL1        0.0000
     16 C           0.6825   -0.8166    0.4741 C.ar    1  UNL1        0.0000
     17 N           1.5758   -1.6771    1.0176 N.ar    1  UNL1        0.0000
     18 C           2.8267   -1.1743    0.7366 C.ar    1  UNL1        0.0000
     19 C           4.0317   -1.8051    1.1470 C.ar    1  UNL1        0.0000
     20 C           5.1839   -1.1924    0.7960 C.ar    1  UNL1        0.0000
     21 C           5.1639    0.0582    0.0310 C.ar    1  UNL1        0.0000
     22 C           6.2640    0.7315   -0.3583 C.2     1  UNL1        0.0000
     23 SI          5.7932    2.2748   -1.3120 Si      1  UNL1        0.0000
     24 C           3.9926    1.8356   -1.0801 C.2     1  UNL1        0.0000
     25 C           3.8747    0.6915   -0.3827 C.ar    1  UNL1        0.0000
     26 C           2.6886    0.0089    0.0104 C.ar    1  UNL1        0.0000
     27 C           1.3205    0.2307   -0.1536 C.ar    1  UNL1        0.0000
     28 H           0.4626    2.2074   -0.3179 H       1  UNL1        0.0000
     29 H           0.4933    1.2575   -1.8659 H       1  UNL1        0.0000
     30 H          -2.3333    1.9250   -1.2802 H       1  UNL1        0.0000
     31 H          -7.9010    0.2061   -1.3116 H       1  UNL1        0.0000
     32 H          -7.5483    2.8541   -1.1792 H       1  UNL1        0.0000
     33 H          -5.1313   -1.8146    0.9724 H       1  UNL1        0.0000
     34 H          -3.7036   -3.5605    2.0541 H       1  UNL1        0.0000
     35 H          -1.2269   -3.1741    1.8715 H       1  UNL1        0.0000
     36 H           1.3639   -2.5225    1.5286 H       1  UNL1        0.0000
     37 H           4.0285   -2.7298    1.7120 H       1  UNL1        0.0000
     38 H           6.1433   -1.6148    1.0737 H       1  UNL1        0.0000
     39 H           7.2939    0.4700   -0.1775 H       1  UNL1        0.0000
     40 H           6.1724    3.5167   -0.5955 H       1  UNL1        0.0000
     41 H           6.2162    2.2101   -2.7319 H       1  UNL1        0.0000
     42 H           3.1980    2.4484   -1.4713 H       1  UNL1        0.0000
@<TRIPOS>BOND
     1     1     2    1
     2     2     3   ar
     3     3     4   ar
     4     4     5    1
     5     5     6   ar
     6     6     7   ar
     7     7     8   ar
     8     8     9   ar
     9     4    10   ar
    10    10    11   ar
    11    11    12   ar
    12    12    13   ar
    13    13    14   ar
    14    14    15   ar
    15    15    16    1
    16    16    17   ar
    17    17    18   ar
    18    18    19   ar
    19    19    20   ar
    20    20    21   ar
    21    21    22    2
    22    22    23    1
    23    23    24    1
    24    24    25    2
    25    25    26   ar
    26    26    27   ar
    27    27     1    1
    28    15     2   ar
    29    27    16   ar
    30     9     5   ar
    31    14    10   ar
    32    26    18   ar
    33    25    21   ar
    34     1    28    1
    35     1    29    1
    36     3    30    1
    37     7    31    1
    38     8    32    1
    39    11    33    1
    40    12    34    1
    41    13    35    1
    42    17    36    1
    43    19    37    1
    44    20    38    1
    45    22    39    1
    46    23    40    1
    47    23    41    1
    48    24    42    1
