@<TRIPOS>MOLECULE
*****
 42 48 0 0 0
SMALL
GASTEIGER

@<TRIPOS>ATOM
      1 C           1.6043   -0.7712    1.7487 C.3     1  UNL1        0.0000
      2 C           0.5250   -0.0995    0.8664 C.ar    1  UNL1        0.0000
      3 C          -0.8588   -0.0311    1.1663 C.ar    1  UNL1        0.0000
      4 C          -1.7899    0.6061    0.2983 C.ar    1  UNL1        0.0000
      5 C          -3.2138    0.6661    0.5779 C.ar    1  UNL1        0.0000
      6 S          -3.7811    1.6829    1.8611 S.2     1  UNL1        0.0000
      7 C          -5.4349    1.2659    1.5931 C.ar    1  UNL1        0.0000
      8 C          -5.5160    0.3796    0.5641 C.ar    1  UNL1        0.0000
      9 SI         -6.8914   -0.5458   -0.3277 Si      1  UNL1        0.0000
     10 C          -5.5524   -1.3442   -1.4376 C.2     1  UNL1        0.0000
     11 C          -4.3150   -0.9147   -1.1049 C.2     1  UNL1        0.0000
     12 C          -4.2712    0.0245   -0.0219 C.ar    1  UNL1        0.0000
     13 C          -1.2146    1.1590   -0.8746 C.ar    1  UNL1        0.0000
     14 C          -1.9000    1.8394   -1.8545 C.ar    1  UNL1        0.0000
     15 S          -0.8571    2.3579   -3.1216 S.2     1  UNL1        0.0000
     16 C           0.5335    1.6894   -2.3616 C.ar    1  UNL1        0.0000
     17 C           0.2042    1.0855   -1.1759 C.ar    1  UNL1        0.0000
     18 C           1.0918    0.4598   -0.3199 C.ar    1  UNL1        0.0000
     19 C           2.4787    0.1977   -0.2731 C.ar    1  UNL1        0.0000
     20 N           3.5915    0.4138   -1.0030 N.ar    1  UNL1        0.0000
     21 C           4.6661   -0.1463   -0.3235 C.ar    1  UNL1        0.0000
     22 C           6.0225   -0.1857   -0.6691 C.ar    1  UNL1        0.0000
     23 C           6.9000   -0.8239    0.2133 C.ar    1  UNL1        0.0000
     24 C           6.4408   -1.4008    1.3960 C.ar    1  UNL1        0.0000
     25 C           5.0834   -1.3572    1.7346 C.ar    1  UNL1        0.0000
     26 C           4.1784   -0.7218    0.8653 C.ar    1  UNL1        0.0000
     27 C           2.7894   -0.4891    0.8727 C.ar    1  UNL1        0.0000
     28 H           1.6826   -0.2701    2.7165 H       1  UNL1        0.0000
     29 H           1.4146   -1.8427    1.8474 H       1  UNL1        0.0000
     30 H          -1.2205   -0.4856    2.0876 H       1  UNL1        0.0000
     31 H          -6.2173    1.6946    2.2045 H       1  UNL1        0.0000
     32 H          -7.5715   -1.5688    0.5048 H       1  UNL1        0.0000
     33 H          -7.7893    0.3271   -1.1240 H       1  UNL1        0.0000
     34 H          -5.8200   -2.0444   -2.2123 H       1  UNL1        0.0000
     35 H          -3.4162   -1.2496   -1.6108 H       1  UNL1        0.0000
     36 H          -2.9552    2.0699   -1.9112 H       1  UNL1        0.0000
     37 H           1.4992    1.7868   -2.8346 H       1  UNL1        0.0000
     38 H           3.6532    0.8955   -1.8882 H       1  UNL1        0.0000
     39 H           6.3873    0.2615   -1.5878 H       1  UNL1        0.0000
     40 H           7.9595   -0.8700   -0.0286 H       1  UNL1        0.0000
     41 H           7.1438   -1.8908    2.0653 H       1  UNL1        0.0000
     42 H           4.7362   -1.8093    2.6585 H       1  UNL1        0.0000
@<TRIPOS>BOND
     1     1     2    1
     2     2     3   ar
     3     3     4   ar
     4     4     5    1
     5     5     6   ar
     6     6     7   ar
     7     7     8   ar
     8     8     9    1
     9     9    10    1
    10    10    11    2
    11    11    12    1
    12     4    13   ar
    13    13    14   ar
    14    14    15   ar
    15    15    16   ar
    16    16    17   ar
    17    17    18   ar
    18    18    19    1
    19    19    20   ar
    20    20    21   ar
    21    21    22   ar
    22    22    23   ar
    23    23    24   ar
    24    24    25   ar
    25    25    26   ar
    26    26    27   ar
    27    27     1    1
    28    18     2   ar
    29    27    19   ar
    30    12     5   ar
    31    17    13   ar
    32    26    21   ar
    33    12     8   ar
    34     1    28    1
    35     1    29    1
    36     3    30    1
    37     7    31    1
    38     9    32    1
    39     9    33    1
    40    10    34    1
    41    11    35    1
    42    14    36    1
    43    16    37    1
    44    20    38    1
    45    22    39    1
    46    23    40    1
    47    24    41    1
    48    25    42    1
