@<TRIPOS>MOLECULE
*****
 38 44 0 0 0
SMALL
GASTEIGER

@<TRIPOS>ATOM
      1 C           1.7779    1.3501   -1.2268 C.3     1  UNL1        0.0013
      2 C           0.7524    0.3503   -0.6262 C.ar    1  UNL1       -0.0326
      3 C          -0.6602    0.4026   -0.8051 C.ar    1  UNL1       -0.0486
      4 C          -1.5430   -0.5553   -0.2204 C.ar    1  UNL1        0.0018
      5 C          -2.9859   -0.5137   -0.3880 C.ar    1  UNL1        0.0475
      6 S          -3.8007   -1.8305   -1.1510 S.2     1  UNL1       -0.0923
      7 C          -5.3366   -1.0799   -1.0126 C.ar    1  UNL1        0.0038
      8 C          -5.2361    0.1537   -0.4243 C.ar    1  UNL1        0.0968
      9 N          -6.3111    0.9620   -0.2103 N.ar    1  UNL1       -0.2514
     10 C          -5.9248    2.1261    0.3814 C.ar    1  UNL1        0.0464
     11 C          -4.6083    2.4594    0.7240 C.ar    1  UNL1        0.0464
     12 N          -3.5190    1.6693    0.5178 N.ar    1  UNL1       -0.2508
     13 C          -3.8772    0.4900   -0.0707 C.ar    1  UNL1        0.1039
     14 C          -0.8680   -1.5214    0.5554 C.ar    1  UNL1        0.0288
     15 C          -1.3694   -2.5586    1.3002 C.ar    1  UNL1        0.1000
     16 O          -0.3437   -3.2403    1.9029 O.2     1  UNL1       -0.4698
     17 C           0.8296   -2.6269    1.5520 C.ar    1  UNL1        0.1000
     18 C           0.5539   -1.5678    0.7353 C.ar    1  UNL1        0.0298
     19 C           1.4051   -0.6565    0.1588 C.ar    1  UNL1        0.0128
     20 C           2.7896   -0.3904    0.1168 C.ar    1  UNL1        0.0525
     21 N           3.9482   -0.8847    0.5935 N.ar    1  UNL1       -0.3535
     22 C           4.9490   -0.0523    0.1081 C.ar    1  UNL1        0.0543
     23 C           6.3644    0.0371    0.1961 C.ar    1  UNL1       -0.0307
     24 C           6.8110    1.1229   -0.5283 C.ar    1  UNL1       -0.0217
     25 S           5.5669    2.0267   -1.3042 S.2     1  UNL1       -0.0948
     26 C           4.3845    0.9452   -0.6620 C.ar    1  UNL1        0.0409
     27 C           2.9962    0.7225   -0.6523 C.ar    1  UNL1       -0.0035
     28 H           1.7623    1.3100   -2.3184 H       1  UNL1        0.0363
     29 H           1.6059    2.3577   -0.8414 H       1  UNL1        0.0363
     30 H          -1.0803    1.2068   -1.4083 H       1  UNL1        0.0627
     31 H          -6.2288   -1.5704   -1.3738 H       1  UNL1        0.0715
     32 H          -6.7332    2.8228    0.5856 H       1  UNL1        0.0845
     33 H          -4.3940    3.4150    1.1949 H       1  UNL1        0.0845
     34 H          -2.3584   -2.9405    1.5104 H       1  UNL1        0.1036
     35 H           1.7254   -3.0625    1.9688 H       1  UNL1        0.1036
     36 H           4.1125   -1.6895    1.1844 H       1  UNL1        0.1659
     37 H           7.0090   -0.6369    0.7446 H       1  UNL1        0.0644
     38 H           7.8353    1.4480   -0.6498 H       1  UNL1        0.0694
@<TRIPOS>BOND
     1     1     2    1
     2     2     3   ar
     3     3     4   ar
     4     4     5    1
     5     5     6   ar
     6     6     7   ar
     7     7     8   ar
     8     8     9   ar
     9     9    10   ar
    10    10    11   ar
    11    11    12   ar
    12    12    13   ar
    13     4    14   ar
    14    14    15   ar
    15    15    16   ar
    16    16    17   ar
    17    17    18   ar
    18    18    19   ar
    19    19    20    1
    20    20    21   ar
    21    21    22   ar
    22    22    23   ar
    23    23    24   ar
    24    24    25   ar
    25    25    26   ar
    26    26    27   ar
    27    27     1    1
    28    19     2   ar
    29    27    20   ar
    30    13     5   ar
    31    18    14   ar
    32    26    22   ar
    33    13     8   ar
    34     1    28    1
    35     1    29    1
    36     3    30    1
    37     7    31    1
    38    10    32    1
    39    11    33    1
    40    15    34    1
    41    17    35    1
    42    21    36    1
    43    23    37    1
    44    24    38    1
