@<TRIPOS>MOLECULE
*****
 36 41 0 0 0
SMALL
GASTEIGER

@<TRIPOS>ATOM
      1 C          -1.5551   -1.1426   -1.3625 C.3     1  UNL1        0.0038
      2 C          -0.3617   -0.7136   -0.4957 C.ar    1  UNL1       -0.0149
      3 C           0.9866   -0.9382   -0.6951 C.ar    1  UNL1       -0.0464
      4 C           1.8815   -0.4283    0.2604 C.ar    1  UNL1        0.0091
      5 C           1.3587    0.2731    1.3691 C.ar    1  UNL1        0.0366
      6 N           0.0427    0.5223    1.5946 N.ar    1  UNL1       -0.2526
      7 C          -0.7437    0.0099    0.6491 C.ar    1  UNL1        0.0909
      8 C          -2.1552    0.0951    0.5993 C.ar    1  UNL1        0.0713
      9 N          -3.1669    0.6122    1.3255 N.ar    1  UNL1       -0.3515
     10 C          -4.3495    0.3104    0.6651 C.ar    1  UNL1        0.0657
     11 C          -5.6769    0.6046    0.9762 C.ar    1  UNL1       -0.0348
     12 C          -6.6313    0.1381    0.0751 C.ar    1  UNL1       -0.0416
     13 C          -6.2237   -0.5715   -1.0481 C.ar    1  UNL1        0.0284
     14 N          -4.9477   -0.8704   -1.3742 N.ar    1  UNL1       -0.2532
     15 C          -4.0241   -0.4159   -0.4960 C.ar    1  UNL1        0.0926
     16 C          -2.6315   -0.5419   -0.5168 C.ar    1  UNL1        0.0097
     17 C           3.3137   -0.6063    0.1100 C.ar    1  UNL1        0.0446
     18 S           4.0741   -2.1631    0.0787 S.2     1  UNL1       -0.0939
     19 C           5.6744   -1.4972   -0.0798 C.ar    1  UNL1       -0.0145
     20 C           5.5546   -0.1544   -0.1114 C.ar    1  UNL1        0.0073
     21 C           6.3354    1.0212   -0.2238 C.ar    1  UNL1       -0.0361
     22 C           5.4430    2.1145   -0.1879 C.ar    1  UNL1        0.0028
     23 N           4.1196    1.6960   -0.0580 N.ar    1  UNL1       -0.3598
     24 C           4.2722    0.3385   -0.0121 C.ar    1  UNL1        0.0615
     25 H          -1.5064   -0.6832   -2.3526 H       1  UNL1        0.0363
     26 H          -1.6321   -2.2314   -1.4133 H       1  UNL1        0.0363
     27 H           1.3385   -1.4840   -1.5647 H       1  UNL1        0.0628
     28 H           2.0235    0.6632    2.1378 H       1  UNL1        0.0836
     29 H          -3.0785    1.1242    2.1931 H       1  UNL1        0.1660
     30 H          -5.9533    1.1612    1.8640 H       1  UNL1        0.0639
     31 H          -7.6864    0.3255    0.2461 H       1  UNL1        0.0633
     32 H          -6.9639   -0.9386   -1.7555 H       1  UNL1        0.0830
     33 H           6.5480   -2.1298   -0.1403 H       1  UNL1        0.0700
     34 H           7.4102    1.0950   -0.3244 H       1  UNL1        0.0639
     35 H           5.6516    3.1751   -0.2509 H       1  UNL1        0.0807
     36 H           3.2595    2.2303   -0.0184 H       1  UNL1        0.1654
@<TRIPOS>BOND
     1     1     2    1
     2     2     3   ar
     3     3     4   ar
     4     4     5   ar
     5     5     6   ar
     6     6     7   ar
     7     7     8    1
     8     8     9   ar
     9     9    10   ar
    10    10    11   ar
    11    11    12   ar
    12    12    13   ar
    13    13    14   ar
    14    14    15   ar
    15    15    16   ar
    16     4    17    1
    17    17    18   ar
    18    18    19   ar
    19    19    20   ar
    20    20    21   ar
    21    21    22   ar
    22    22    23   ar
    23    23    24   ar
    24    16     1    1
    25    24    17   ar
    26     7     2   ar
    27    16     8   ar
    28    24    20   ar
    29    15    10   ar
    30     1    25    1
    31     1    26    1
    32     3    27    1
    33     5    28    1
    34     9    29    1
    35    11    30    1
    36    12    31    1
    37    13    32    1
    38    19    33    1
    39    21    34    1
    40    22    35    1
    41    23    36    1
