@<TRIPOS>MOLECULE
*****
 31 35 0 0 0
SMALL
GASTEIGER

@<TRIPOS>ATOM
      1 C           1.0913    0.2449   -1.8004 C.3     1  UNL1        0.0000
      2 C          -0.2685    0.1860   -1.1298 C.ar    1  UNL1        0.0000
      3 C          -1.6393    0.2686   -1.4029 C.ar    1  UNL1        0.0000
      4 C          -2.2944    0.1048   -0.1751 C.ar    1  UNL1        0.0000
      5 O          -1.3571   -0.0745    0.8328 O.2     1  UNL1        0.0000
      6 C          -0.1652   -0.0208    0.2316 C.ar    1  UNL1        0.0000
      7 C           1.1934   -0.1134    0.5745 C.ar    1  UNL1        0.0000
      8 N           1.9616   -0.3016    1.6762 N.ar    1  UNL1        0.0000
      9 C           3.2576   -0.2732    1.2228 C.ar    1  UNL1        0.0000
     10 C           4.4412   -0.4224    1.9791 C.2     1  UNL1        0.0000
     11 C           5.5251   -0.3350    1.1745 C.2     1  UNL1        0.0000
     12 SI          5.0391   -0.0406   -0.6947 Si      1  UNL1        0.0000
     13 C           3.2643   -0.0681   -0.1497 C.ar    1  UNL1        0.0000
     14 C           1.9601    0.0355   -0.5771 C.ar    1  UNL1        0.0000
     15 C          -3.6996    0.1059    0.1037 C.ar    1  UNL1        0.0000
     16 C          -4.3447   -0.0557    1.3151 C.ar    1  UNL1        0.0000
     17 C          -5.7390    0.0219    1.0799 C.ar    1  UNL1        0.0000
     18 C          -5.9131    0.2290   -0.2694 C.ar    1  UNL1        0.0000
     19 N          -4.6720    0.2783   -0.8515 N.ar    1  UNL1        0.0000
     20 H           1.2158   -0.5641   -2.5246 H       1  UNL1        0.0000
     21 H           1.2701    1.2215   -2.2575 H       1  UNL1        0.0000
     22 H          -2.1096    0.4263   -2.3618 H       1  UNL1        0.0000
     23 H           1.6416   -0.4339    2.6265 H       1  UNL1        0.0000
     24 H           4.4725   -0.5834    3.0486 H       1  UNL1        0.0000
     25 H           6.5652   -0.4074    1.4470 H       1  UNL1        0.0000
     26 H           5.5359    1.2824   -1.1507 H       1  UNL1        0.0000
     27 H           5.4602   -1.1996   -1.5220 H       1  UNL1        0.0000
     28 H          -3.8556   -0.2131    2.2682 H       1  UNL1        0.0000
     29 H          -6.5275   -0.0642    1.8162 H       1  UNL1        0.0000
     30 H          -6.8089    0.3452   -0.8644 H       1  UNL1        0.0000
     31 H          -4.5004    0.4205   -1.8369 H       1  UNL1        0.0000
@<TRIPOS>BOND
     1     1     2    1
     2     2     3   ar
     3     3     4   ar
     4     4     5   ar
     5     5     6   ar
     6     6     7    1
     7     7     8   ar
     8     8     9   ar
     9     9    10    1
    10    10    11    2
    11    11    12    1
    12    12    13    1
    13    13    14   ar
    14     4    15    1
    15    15    16   ar
    16    16    17   ar
    17    17    18   ar
    18    18    19   ar
    19    14     1    1
    20    19    15   ar
    21     6     2   ar
    22    14     7   ar
    23    13     9   ar
    24     1    20    1
    25     1    21    1
    26     3    22    1
    27     8    23    1
    28    10    24    1
    29    11    25    1
    30    12    26    1
    31    12    27    1
    32    16    28    1
    33    17    29    1
    34    18    30    1
    35    19    31    1
