@<TRIPOS>MOLECULE
*****
 33 38 0 0 0
SMALL
GASTEIGER

@<TRIPOS>ATOM
      1 C           1.6356   -2.0938   -0.2473 C.3     1  UNL1        0.0053
      2 C           0.4083   -1.2166   -0.4347 C.ar    1  UNL1        0.0049
      3 C          -0.8599   -1.2072   -1.0273 C.ar    1  UNL1       -0.0116
      4 C          -1.4140    0.0414   -0.7326 C.ar    1  UNL1        0.1382
      5 O          -0.5239    0.7924    0.0203 O.2     1  UNL1       -0.4530
      6 C           0.5519    0.0145    0.1805 C.ar    1  UNL1        0.1556
      7 C           1.8135    0.0679    0.7980 C.ar    1  UNL1        0.0884
      8 N           2.5659    0.9133    1.5283 N.ar    1  UNL1       -0.3503
      9 C           3.7443    0.2298    1.7789 C.ar    1  UNL1        0.0650
     10 C           4.9940    0.3740    2.4313 C.ar    1  UNL1       -0.0204
     11 C           5.6506   -0.8224    2.2082 C.ar    1  UNL1        0.0042
     12 N           4.8637   -1.6684    1.4614 N.ar    1  UNL1       -0.3592
     13 C           3.6923   -1.0181    1.1993 C.ar    1  UNL1        0.0685
     14 C           2.4525   -1.1334    0.5645 C.ar    1  UNL1        0.0092
     15 C          -2.6768    0.7028   -1.0326 C.ar    1  UNL1        0.0454
     16 C          -2.9804    2.0152   -0.5918 C.ar    1  UNL1       -0.0489
     17 C          -4.1975    2.6824   -0.8677 C.ar    1  UNL1       -0.0589
     18 C          -5.2323    2.1007   -1.6131 C.ar    1  UNL1       -0.0335
     19 C          -4.9989    0.7884   -2.0868 C.ar    1  UNL1        0.1006
     20 N          -5.8642    0.0663   -2.8149 N.ar    1  UNL1       -0.1908
     21 S          -5.1277   -1.3873   -3.1148 S.2     1  UNL1        0.1165
     22 N          -3.6811   -1.1700   -2.3377 N.ar    1  UNL1       -0.1901
     23 C          -3.6975    0.0633   -1.7970 C.ar    1  UNL1        0.1105
     24 H           1.3951   -3.0014    0.3120 H       1  UNL1        0.0364
     25 H           2.1088   -2.3268   -1.2044 H       1  UNL1        0.0364
     26 H          -1.3277   -1.9962   -1.5984 H       1  UNL1        0.0658
     27 H           2.3595    1.8504    1.8480 H       1  UNL1        0.1660
     28 H           5.3671    1.2241    2.9851 H       1  UNL1        0.0653
     29 H           6.6327   -1.1480    2.5257 H       1  UNL1        0.0807
     30 H           5.0775   -2.6058    1.1451 H       1  UNL1        0.1654
     31 H          -2.2368    2.5550   -0.0020 H       1  UNL1        0.0625
     32 H          -4.3344    3.6933   -0.4825 H       1  UNL1        0.0618
     33 H          -6.1604    2.6205   -1.8185 H       1  UNL1        0.0640
@<TRIPOS>BOND
     1     1     2    1
     2     2     3   ar
     3     3     4   ar
     4     4     5   ar
     5     5     6   ar
     6     6     7    1
     7     7     8   ar
     8     8     9   ar
     9     9    10   ar
    10    10    11   ar
    11    11    12   ar
    12    12    13   ar
    13    13    14   ar
    14     4    15    1
    15    15    16   ar
    16    16    17   ar
    17    17    18   ar
    18    18    19   ar
    19    19    20   ar
    20    20    21   ar
    21    21    22   ar
    22    22    23   ar
    23    14     1    1
    24    23    15   ar
    25     6     2   ar
    26    14     7   ar
    27    23    19   ar
    28    13     9   ar
    29     1    24    1
    30     1    25    1
    31     3    26    1
    32     8    27    1
    33    10    28    1
    34    11    29    1
    35    12    30    1
    36    16    31    1
    37    17    32    1
    38    18    33    1
