@<TRIPOS>MOLECULE
*****
 48 55 0 0 0
SMALL
GASTEIGER

@<TRIPOS>ATOM
      1 SI         -0.6567    4.2804   -0.9091 Si      1  UNL1        0.0000
      2 C           0.9024    3.2905   -0.6642 C.2     1  UNL1        0.0000
      3 C           0.6277    1.9965   -0.3984 C.ar    1  UNL1        0.0000
      4 C           1.6231    0.9391   -0.3214 C.ar    1  UNL1        0.0000
      5 C           3.0737    1.1058   -0.1552 C.2     1  UNL1        0.0000
      6 C           3.7800   -0.0321   -0.0229 C.2     1  UNL1        0.0000
      7 SI          2.6534   -1.5135   -0.1103 Si      1  UNL1        0.0000
      8 C           1.1959   -0.3534   -0.3783 C.ar    1  UNL1        0.0000
      9 C          -0.2345   -0.7130   -0.4005 C.ar    1  UNL1        0.0000
     10 C          -0.7995   -1.9692   -0.6680 C.ar    1  UNL1        0.0000
     11 C          -0.1954   -3.0823   -1.2077 C.ar    1  UNL1        0.0000
     12 N          -1.1441   -4.0741   -1.3190 N.ar    1  UNL1        0.0000
     13 C          -2.3623   -3.6071   -0.8930 C.ar    1  UNL1        0.0000
     14 C          -2.1904   -2.2974   -0.5059 C.ar    1  UNL1        0.0000
     15 C          -3.1965   -1.4410   -0.0009 C.ar    1  UNL1        0.0000
     16 C          -4.5734   -1.8568    0.2042 C.ar    1  UNL1        0.0000
     17 C          -5.5586   -1.0410    0.7779 C.ar    1  UNL1        0.0000
     18 C          -5.0273    0.1760    1.1849 C.ar    1  UNL1        0.0000
     19 C          -5.7940    1.0796    1.8808 C.ar    1  UNL1        0.0000
     20 S          -4.8604    2.4216    2.3917 S.2     1  UNL1        0.0000
     21 C          -3.4327    1.7772    1.6870 C.ar    1  UNL1        0.0000
     22 C          -3.6633    0.6198    0.9742 C.ar    1  UNL1        0.0000
     23 C          -2.6437   -0.1235    0.2816 C.ar    1  UNL1        0.0000
     24 C          -1.2575    0.2536   -0.0804 C.ar    1  UNL1        0.0000
     25 C          -0.8181    1.6715   -0.3014 C.ar    1  UNL1        0.0000
     26 C          -1.6190    2.7065   -0.6378 C.2     1  UNL1        0.0000
     27 C           5.1785   -0.1310    0.1598 C.ar    1  UNL1        0.0000
     28 C           6.1448    0.8685    0.2567 C.ar    1  UNL1        0.0000
     29 C           7.4062    0.2531    0.4364 C.ar    1  UNL1        0.0000
     30 C           7.1638   -1.0947    0.4423 C.ar    1  UNL1        0.0000
     31 O           5.8424   -1.3368    0.2782 O.2     1  UNL1        0.0000
     32 H          -0.7860    4.8018   -2.2910 H       1  UNL1        0.0000
     33 H          -0.8714    5.2708    0.1734 H       1  UNL1        0.0000
     34 H           1.8695    3.7396   -0.8199 H       1  UNL1        0.0000
     35 H           3.5058    2.0973   -0.1265 H       1  UNL1        0.0000
     36 H           2.5494   -2.2543    1.1750 H       1  UNL1        0.0000
     37 H           2.9289   -2.3645   -1.3001 H       1  UNL1        0.0000
     38 H           0.8023   -3.2858   -1.5636 H       1  UNL1        0.0000
     39 H          -0.9722   -5.0018   -1.6854 H       1  UNL1        0.0000
     40 H          -3.2275   -4.2544   -0.9208 H       1  UNL1        0.0000
     41 H          -4.8687   -2.8638   -0.0862 H       1  UNL1        0.0000
     42 H          -6.5759   -1.3716    0.9372 H       1  UNL1        0.0000
     43 H          -6.8384    1.0151    2.1536 H       1  UNL1        0.0000
     44 H          -2.5040    2.3037    1.8493 H       1  UNL1        0.0000
     45 H          -2.6882    2.6995   -0.7748 H       1  UNL1        0.0000
     46 H           5.9543    1.9314    0.2035 H       1  UNL1        0.0000
     47 H           8.3676    0.7335    0.5476 H       1  UNL1        0.0000
     48 H           7.7901   -1.9693    0.5475 H       1  UNL1        0.0000
@<TRIPOS>BOND
     1     1     2    1
     2     2     3    2
     3     3     4   ar
     4     4     5    1
     5     5     6    2
     6     6     7    1
     7     7     8    1
     8     8     9   ar
     9     9    10   ar
    10    10    11   ar
    11    11    12   ar
    12    12    13   ar
    13    13    14   ar
    14    14    15   ar
    15    15    16   ar
    16    16    17   ar
    17    17    18   ar
    18    18    19   ar
    19    19    20   ar
    20    20    21   ar
    21    21    22   ar
    22    22    23   ar
    23    23    24   ar
    24    24    25   ar
    25    25    26    2
    26     6    27    1
    27    27    28   ar
    28    28    29   ar
    29    29    30   ar
    30    30    31   ar
    31    26     1    1
    32    31    27   ar
    33    25     3   ar
    34     8     4   ar
    35    24     9   ar
    36    14    10   ar
    37    23    15   ar
    38    22    18   ar
    39     1    32    1
    40     1    33    1
    41     2    34    1
    42     5    35    1
    43     7    36    1
    44     7    37    1
    45    11    38    1
    46    12    39    1
    47    13    40    1
    48    16    41    1
    49    17    42    1
    50    19    43    1
    51    21    44    1
    52    26    45    1
    53    28    46    1
    54    29    47    1
    55    30    48    1
