@<TRIPOS>MOLECULE
*****
 36 41 0 0 0
SMALL
GASTEIGER

@<TRIPOS>ATOM
      1 C          -0.4363    1.1340   -0.9830 C.3     1  UNL1        0.0039
      2 C           0.9982    0.8491   -0.5779 C.ar    1  UNL1        0.0049
      3 C           2.3170    1.2348   -0.8417 C.ar    1  UNL1       -0.0102
      4 C           3.1250    0.4561   -0.0057 C.ar    1  UNL1        0.1521
      5 O           2.3348   -0.3920    0.7585 O.2     1  UNL1       -0.4516
      6 C           1.0755   -0.1314    0.3924 C.ar    1  UNL1        0.1556
      7 C          -0.2245   -0.5621    0.7024 C.ar    1  UNL1        0.0869
      8 N          -0.8477   -1.4451    1.5160 N.ar    1  UNL1       -0.3515
      9 C          -2.2202   -1.3358    1.2894 C.ar    1  UNL1        0.0479
     10 C          -3.3253   -2.0201    1.8663 C.ar    1  UNL1       -0.0371
     11 C          -4.6515   -1.7288    1.4651 C.ar    1  UNL1       -0.0506
     12 C          -4.7161   -0.7409    0.4885 C.ar    1  UNL1        0.0001
     13 C          -5.8668   -0.2561   -0.0876 C.ar    1  UNL1        0.0094
     14 N          -5.4982    0.7140   -1.0092 N.ar    1  UNL1       -0.3659
     15 C          -4.1236    0.8607   -1.0343 C.ar    1  UNL1        0.0100
     16 C          -3.6684   -0.0341   -0.1154 C.ar    1  UNL1        0.0088
     17 C          -2.3547   -0.3472    0.3061 C.ar    1  UNL1        0.0130
     18 C          -1.1266    0.1468   -0.0728 C.ar    1  UNL1       -0.0063
     19 C           4.5500    0.4626    0.1127 C.ar    1  UNL1        0.0821
     20 C           5.5136    1.2092   -0.5358 C.ar    1  UNL1       -0.0334
     21 C           6.7777    0.8099   -0.0328 C.ar    1  UNL1       -0.0437
     22 C           6.5535   -0.1692    0.9087 C.ar    1  UNL1        0.0023
     23 N           5.2005   -0.3718    0.9889 N.ar    1  UNL1       -0.3583
     24 H          -0.7201    2.1637   -0.7512 H       1  UNL1        0.0363
     25 H          -0.6080    0.9002   -2.0367 H       1  UNL1        0.0363
     26 H           2.6666    1.9791   -1.5424 H       1  UNL1        0.0659
     27 H          -0.4076   -2.0741    2.1727 H       1  UNL1        0.1660
     28 H          -3.1558   -2.7788    2.6267 H       1  UNL1        0.0638
     29 H          -5.5101   -2.2336    1.8868 H       1  UNL1        0.0625
     30 H          -6.9104   -0.4978    0.0596 H       1  UNL1        0.0813
     31 H          -6.1463    1.2391   -1.5813 H       1  UNL1        0.1648
     32 H          -3.6412    1.5705   -1.6902 H       1  UNL1        0.0813
     33 H           5.3335    1.9626   -1.2912 H       1  UNL1        0.0640
     34 H           7.7452    1.1959   -0.3268 H       1  UNL1        0.0633
     35 H           7.2357   -0.7374    1.5265 H       1  UNL1        0.0807
     36 H           4.7324   -1.0320    1.5961 H       1  UNL1        0.1654
@<TRIPOS>BOND
     1     1     2    1
     2     2     3   ar
     3     3     4   ar
     4     4     5   ar
     5     5     6   ar
     6     6     7    1
     7     7     8   ar
     8     8     9   ar
     9     9    10   ar
    10    10    11   ar
    11    11    12   ar
    12    12    13   ar
    13    13    14   ar
    14    14    15   ar
    15    15    16   ar
    16    16    17   ar
    17    17    18   ar
    18     4    19    1
    19    19    20   ar
    20    20    21   ar
    21    21    22   ar
    22    22    23   ar
    23    18     1    1
    24    23    19   ar
    25     6     2   ar
    26    18     7   ar
    27    17     9   ar
    28    16    12   ar
    29     1    24    1
    30     1    25    1
    31     3    26    1
    32     8    27    1
    33    10    28    1
    34    11    29    1
    35    13    30    1
    36    14    31    1
    37    15    32    1
    38    20    33    1
    39    21    34    1
    40    22    35    1
    41    23    36    1
