@<TRIPOS>MOLECULE
*****
 31 35 0 0 0
SMALL
GASTEIGER

@<TRIPOS>ATOM
      1 C          -1.3029    1.2680   -1.4353 C.3     1  UNL1        0.0000
      2 C          -0.0630    0.6445   -0.7849 C.ar    1  UNL1        0.0000
      3 C           1.3369    0.7493   -0.9309 C.ar    1  UNL1        0.0000
      4 C           2.0324   -0.0829   -0.0408 C.ar    1  UNL1        0.0000
      5 S           0.8897   -0.9752    0.9566 S.2     1  UNL1        0.0000
      6 C          -0.3976   -0.2587    0.2060 C.ar    1  UNL1        0.0000
      7 C          -1.8038   -0.3115    0.2956 C.ar    1  UNL1        0.0000
      8 N          -2.7592   -0.9448    1.0067 N.ar    1  UNL1        0.0000
      9 C          -3.9618   -0.4671    0.5142 C.ar    1  UNL1        0.0000
     10 C          -5.3624   -0.5961    0.6866 C.ar    1  UNL1        0.0000
     11 C          -5.9147    0.2678   -0.2412 C.ar    1  UNL1        0.0000
     12 N          -4.9234    0.9017   -0.9540 N.ar    1  UNL1        0.0000
     13 C          -3.7241    0.4470   -0.4864 C.ar    1  UNL1        0.0000
     14 C          -2.3388    0.5538   -0.6342 C.ar    1  UNL1        0.0000
     15 C           3.4434   -0.2460    0.1048 C.2     1  UNL1        0.0000
     16 C           4.3677    0.4127   -0.6308 C.2     1  UNL1        0.0000
     17 C           5.7604    0.1085   -0.3319 C.2     1  UNL1        0.0000
     18 C           5.9541   -0.7949    0.6442 C.2     1  UNL1        0.0000
     19 SI          4.3145   -1.3983    1.3358 Si      1  UNL1        0.0000
     20 H          -1.3291    2.3488   -1.2757 H       1  UNL1        0.0000
     21 H          -1.3570    1.0183   -2.4979 H       1  UNL1        0.0000
     22 H           1.8239    1.3975   -1.6477 H       1  UNL1        0.0000
     23 H          -2.6676   -1.6273    1.7476 H       1  UNL1        0.0000
     24 H          -5.8969   -1.2257    1.3842 H       1  UNL1        0.0000
     25 H          -6.9520    0.4882   -0.4573 H       1  UNL1        0.0000
     26 H          -5.0236    1.5842   -1.6946 H       1  UNL1        0.0000
     27 H           4.1440    1.1332   -1.4076 H       1  UNL1        0.0000
     28 H           6.5639    0.5918   -0.8744 H       1  UNL1        0.0000
     29 H           6.8975   -1.1592    1.0185 H       1  UNL1        0.0000
     30 H           4.1057   -2.8399    1.0462 H       1  UNL1        0.0000
     31 H           4.1439   -0.9878    2.7529 H       1  UNL1        0.0000
@<TRIPOS>BOND
     1     1     2    1
     2     2     3   ar
     3     3     4   ar
     4     4     5   ar
     5     5     6   ar
     6     6     7    1
     7     7     8   ar
     8     8     9   ar
     9     9    10   ar
    10    10    11   ar
    11    11    12   ar
    12    12    13   ar
    13    13    14   ar
    14     4    15    1
    15    15    16    2
    16    16    17    1
    17    17    18    2
    18    18    19    1
    19    14     1    1
    20    19    15    1
    21     6     2   ar
    22    14     7   ar
    23    13     9   ar
    24     1    20    1
    25     1    21    1
    26     3    22    1
    27     8    23    1
    28    10    24    1
    29    11    25    1
    30    12    26    1
    31    16    27    1
    32    17    28    1
    33    18    29    1
    34    19    30    1
    35    19    31    1
