@<TRIPOS>MOLECULE
*****
 36 42 0 0 0
SMALL
GASTEIGER

@<TRIPOS>ATOM
      1 C          -1.2816   -1.5604    0.0156 C.3     1  UNL1        0.0014
      2 C           0.0445   -0.7988   -0.0480 C.ar    1  UNL1       -0.0262
      3 C           1.4175   -1.1259   -0.0543 C.ar    1  UNL1       -0.0427
      4 C           2.2119    0.0188   -0.1268 C.ar    1  UNL1        0.0224
      5 S           1.2421    1.4681   -0.1767 S.2     1  UNL1       -0.0864
      6 C          -0.1479    0.5693   -0.1103 C.ar    1  UNL1        0.0398
      7 C          -1.5342    0.8159   -0.0956 C.ar    1  UNL1        0.0580
      8 N          -2.3875    1.8665   -0.1268 N.ar    1  UNL1       -0.3534
      9 C          -3.6882    1.3609   -0.0784 C.ar    1  UNL1        0.0494
     10 C          -4.9348    2.0134   -0.0843 C.ar    1  UNL1       -0.0356
     11 C          -6.1182    1.2496   -0.0254 C.ar    1  UNL1       -0.0315
     12 C          -5.9890   -0.1597    0.0378 C.ar    1  UNL1        0.1006
     13 N          -6.9999   -1.0493    0.0988 N.ar    1  UNL1       -0.1908
     14 S          -6.2950   -2.5719    0.1568 S.2     1  UNL1        0.1165
     15 N          -4.6654   -2.1692    0.1052 N.ar    1  UNL1       -0.1901
     16 C          -4.7103   -0.8475    0.0450 C.ar    1  UNL1        0.1093
     17 C          -3.5494   -0.0261   -0.0162 C.ar    1  UNL1        0.0319
     18 C          -2.2160   -0.3829   -0.0246 C.ar    1  UNL1       -0.0074
     19 C           3.6712    0.1288   -0.1509 C.ar    1  UNL1        0.0169
     20 C           4.3752    0.9923   -1.0242 C.ar    1  UNL1       -0.0513
     21 C           5.7863    1.0968   -1.0551 C.ar    1  UNL1       -0.0590
     22 C           6.6268    0.3472   -0.2179 C.ar    1  UNL1       -0.0335
     23 C           5.9867   -0.5411    0.6785 C.ar    1  UNL1        0.1005
     24 N           6.6123   -1.3420    1.5546 N.ar    1  UNL1       -0.1908
     25 S           5.4252   -2.1681    2.3662 S.2     1  UNL1        0.1165
     26 N           4.0670   -1.5569    1.6400 N.ar    1  UNL1       -0.1902
     27 C           4.4774   -0.6629    0.7207 C.ar    1  UNL1        0.1080
     28 H          -1.3706   -2.1203    0.9501 H       1  UNL1        0.0363
     29 H          -1.4057   -2.2099   -0.8547 H       1  UNL1        0.0363
     30 H           1.8172   -2.1317   -0.0067 H       1  UNL1        0.0632
     31 H          -2.1351    2.8443   -0.1744 H       1  UNL1        0.1659
     32 H          -4.9945    3.0980   -0.1332 H       1  UNL1        0.0639
     33 H          -7.0960    1.7180   -0.0279 H       1  UNL1        0.0640
     34 H           3.8116    1.6096   -1.7255 H       1  UNL1        0.0624
     35 H           6.2404    1.7903   -1.7638 H       1  UNL1        0.0618
     36 H           7.7060    0.4368   -0.2516 H       1  UNL1        0.0640
@<TRIPOS>BOND
     1     1     2    1
     2     2     3   ar
     3     3     4   ar
     4     4     5   ar
     5     5     6   ar
     6     6     7    1
     7     7     8   ar
     8     8     9   ar
     9     9    10   ar
    10    10    11   ar
    11    11    12   ar
    12    12    13   ar
    13    13    14   ar
    14    14    15   ar
    15    15    16   ar
    16    16    17   ar
    17    17    18   ar
    18     4    19    1
    19    19    20   ar
    20    20    21   ar
    21    21    22   ar
    22    22    23   ar
    23    23    24   ar
    24    24    25   ar
    25    25    26   ar
    26    26    27   ar
    27    18     1    1
    28    27    19   ar
    29     6     2   ar
    30    18     7   ar
    31    27    23   ar
    32    17     9   ar
    33    16    12   ar
    34     1    28    1
    35     1    29    1
    36     3    30    1
    37     8    31    1
    38    10    32    1
    39    11    33    1
    40    20    34    1
    41    21    35    1
    42    22    36    1
