@<TRIPOS>MOLECULE
*****
 38 43 0 0 0
SMALL
GASTEIGER

@<TRIPOS>ATOM
      1 C           3.9073    1.6209    0.1227 C.3     1  UNL1        0.0023
      2 C           4.9322    0.4985    0.1474 C.ar    1  UNL1       -0.0163
      3 C           6.3127    0.2832    0.2493 C.ar    1  UNL1       -0.0403
      4 C           6.4940   -1.0949    0.1915 C.ar    1  UNL1        0.0025
      5 N           5.2614   -1.7167    0.0577 N.ar    1  UNL1       -0.3593
      6 C           4.3341   -0.7419    0.0330 C.ar    1  UNL1        0.0667
      7 C           2.9466   -0.5712   -0.0717 C.ar    1  UNL1        0.0677
      8 N           1.8198   -1.2929   -0.2029 N.ar    1  UNL1       -0.3528
      9 C           0.7505   -0.4021   -0.2422 C.ar    1  UNL1        0.0478
     10 C          -0.6221   -0.6585   -0.3675 C.ar    1  UNL1       -0.0300
     11 C          -1.5148    0.4294   -0.3791 C.ar    1  UNL1       -0.0153
     12 C          -1.0126    1.7347   -0.2764 C.ar    1  UNL1       -0.0533
     13 C           0.3606    1.9879   -0.1513 C.ar    1  UNL1       -0.0517
     14 C           1.2584    0.9081   -0.1326 C.ar    1  UNL1        0.0038
     15 C           2.6533    0.7772   -0.0245 C.ar    1  UNL1       -0.0086
     16 C          -2.9492    0.2026   -0.5121 C.ar    1  UNL1       -0.0096
     17 C          -3.6930    0.5325   -1.6759 C.ar    1  UNL1       -0.0534
     18 C          -5.1003    0.3081   -1.8270 C.ar    1  UNL1       -0.0606
     19 C          -5.9168   -0.2670   -0.8310 C.ar    1  UNL1       -0.0535
     20 C          -5.1893   -0.5848    0.3156 C.ar    1  UNL1       -0.0103
     21 C          -5.7734   -1.1478    1.4233 C.ar    1  UNL1       -0.0166
     22 S          -4.6210   -1.4046    2.6721 S.2     1  UNL1       -0.1039
     23 C          -3.3392   -0.7562    1.7262 C.ar    1  UNL1       -0.0160
     24 C          -3.7716   -0.3647    0.4794 C.ar    1  UNL1       -0.0032
     25 H           4.0528    2.2773   -0.7389 H       1  UNL1        0.0363
     26 H           3.9054    2.1824    1.0604 H       1  UNL1        0.0363
     27 H           7.0964    1.0216    0.3525 H       1  UNL1        0.0635
     28 H           7.3956   -1.6911    0.2341 H       1  UNL1        0.0807
     29 H           5.1028   -2.7130   -0.0076 H       1  UNL1        0.1654
     30 H           1.7433   -2.2977   -0.2632 H       1  UNL1        0.1660
     31 H          -0.9904   -1.6769   -0.4568 H       1  UNL1        0.0644
     32 H          -1.6988    2.5800   -0.2846 H       1  UNL1        0.0624
     33 H           0.7218    3.0085   -0.0688 H       1  UNL1        0.0624
     34 H          -3.1621    0.9797   -2.5183 H       1  UNL1        0.0624
     35 H          -5.5637    0.5997   -2.7703 H       1  UNL1        0.0618
     36 H          -6.9784   -0.4274   -0.9637 H       1  UNL1        0.0624
     37 H          -6.8074   -1.4217    1.5805 H       1  UNL1        0.0699
     38 H          -2.3449   -0.7013    2.1481 H       1  UNL1        0.0700
@<TRIPOS>BOND
     1     1     2    1
     2     2     3   ar
     3     3     4   ar
     4     4     5   ar
     5     5     6   ar
     6     6     7    1
     7     7     8   ar
     8     8     9   ar
     9     9    10   ar
    10    10    11   ar
    11    11    12   ar
    12    12    13   ar
    13    13    14   ar
    14    14    15   ar
    15    11    16    1
    16    16    17   ar
    17    17    18   ar
    18    18    19   ar
    19    19    20   ar
    20    20    21   ar
    21    21    22   ar
    22    22    23   ar
    23    23    24   ar
    24    15     1    1
    25    24    16   ar
    26     6     2   ar
    27    15     7   ar
    28    24    20   ar
    29    14     9   ar
    30     1    25    1
    31     1    26    1
    32     3    27    1
    33     4    28    1
    34     5    29    1
    35     8    30    1
    36    10    31    1
    37    12    32    1
    38    13    33    1
    39    17    34    1
    40    18    35    1
    41    19    36    1
    42    21    37    1
    43    23    38    1
