@<TRIPOS>MOLECULE
*****
 33 37 0 0 0
SMALL
GASTEIGER

@<TRIPOS>ATOM
      1 C          -2.3237   -1.6022   -1.1058 C.3     1  UNL1        0.0003
      2 C          -3.4527   -0.7002   -0.6894 C.ar    1  UNL1       -0.0178
      3 C          -4.8537   -0.6524   -0.7605 C.ar    1  UNL1       -0.0403
      4 C          -5.2345    0.5291   -0.1373 C.ar    1  UNL1        0.0024
      5 N          -4.1035    1.1924    0.3062 N.ar    1  UNL1       -0.3604
      6 C          -3.0418    0.4352   -0.0370 C.ar    1  UNL1        0.0509
      7 C          -1.6370    0.4451    0.0666 C.ar    1  UNL1        0.0128
      8 C          -1.1555   -0.7482   -0.5528 C.ar    1  UNL1       -0.0326
      9 C           0.2296   -1.0788   -0.6340 C.ar    1  UNL1       -0.0492
     10 C           1.2636   -0.2407   -0.1052 C.ar    1  UNL1       -0.0054
     11 C           2.6822   -0.5568   -0.1813 C.ar    1  UNL1        0.0009
     12 C           3.5930    0.2720   -0.8472 C.ar    1  UNL1       -0.0511
     13 C           4.9422   -0.0725   -0.9070 C.ar    1  UNL1       -0.0430
     14 C           5.3473   -1.2477   -0.2983 C.ar    1  UNL1        0.0276
     15 N           4.5082   -2.0811    0.3503 N.ar    1  UNL1       -0.2627
     16 C           3.2033   -1.7167    0.3919 C.ar    1  UNL1        0.0353
     17 C           0.7402    0.9226    0.5001 C.ar    1  UNL1        0.0282
     18 C           1.4013    1.9398    1.1409 C.ar    1  UNL1        0.1000
     19 O           0.5015    2.8715    1.5890 O.2     1  UNL1       -0.4698
     20 C          -0.7528    2.4417    1.2443 C.ar    1  UNL1        0.1000
     21 C          -0.6521    1.2510    0.5828 C.ar    1  UNL1        0.0298
     22 H          -2.3688   -2.5713   -0.6032 H       1  UNL1        0.0362
     23 H          -2.2560   -1.6965   -2.1923 H       1  UNL1        0.0362
     24 H          -5.5223   -1.3775   -1.2053 H       1  UNL1        0.0635
     25 H          -6.2136    0.9574    0.0305 H       1  UNL1        0.0807
     26 H          -4.0879    2.0777    0.7951 H       1  UNL1        0.1653
     27 H           0.5088   -2.0075   -1.1325 H       1  UNL1        0.0627
     28 H           3.2547    1.1850   -1.3322 H       1  UNL1        0.0625
     29 H           5.6579    0.5597   -1.4205 H       1  UNL1        0.0633
     30 H           6.3875   -1.5600   -0.3186 H       1  UNL1        0.0829
     31 H           2.5623   -2.4121    0.9291 H       1  UNL1        0.0836
     32 H           2.4369    2.1559    1.3631 H       1  UNL1        0.1036
     33 H          -1.5645    3.0863    1.5468 H       1  UNL1        0.1036
@<TRIPOS>BOND
     1     1     2    1
     2     2     3   ar
     3     3     4   ar
     4     4     5   ar
     5     5     6   ar
     6     6     7    1
     7     7     8   ar
     8     8     9   ar
     9     9    10   ar
    10    10    11    1
    11    11    12   ar
    12    12    13   ar
    13    13    14   ar
    14    14    15   ar
    15    15    16   ar
    16    10    17   ar
    17    17    18   ar
    18    18    19   ar
    19    19    20   ar
    20    20    21   ar
    21     8     1    1
    22    16    11   ar
    23    21    17   ar
    24     6     2   ar
    25    21     7   ar
    26     1    22    1
    27     1    23    1
    28     3    24    1
    29     4    25    1
    30     5    26    1
    31     9    27    1
    32    12    28    1
    33    13    29    1
    34    14    30    1
    35    16    31    1
    36    18    32    1
    37    20    33    1
