@<TRIPOS>MOLECULE
*****
 32 36 0 0 0
SMALL
GASTEIGER

@<TRIPOS>ATOM
      1 C          -2.9758    0.8497    1.3827 C.3     1  UNL1        0.0000
      2 C          -3.9899    0.1623    0.5153 C.ar    1  UNL1        0.0000
      3 C          -5.3779    0.1127    0.3149 C.ar    1  UNL1        0.0000
      4 C          -5.5908   -0.7991   -0.7133 C.ar    1  UNL1        0.0000
      5 N          -4.3707   -1.2989   -1.1358 N.ar    1  UNL1        0.0000
      6 C          -3.4249   -0.7046   -0.3831 C.ar    1  UNL1        0.0000
      7 C          -2.0155   -0.7155   -0.2462 C.ar    1  UNL1        0.0000
      8 N          -1.1590   -1.4425   -0.9637 N.ar    1  UNL1        0.0000
      9 C           0.1332   -1.2376   -0.5985 C.ar    1  UNL1        0.0000
     10 C           0.5668   -0.3552    0.4143 C.ar    1  UNL1        0.0000
     11 C          -0.3969    0.3789    1.1256 C.ar    1  UNL1        0.0000
     12 C          -1.7233    0.1929    0.7875 C.ar    1  UNL1        0.0000
     13 C           1.9890   -0.1982    0.6968 C.ar    1  UNL1        0.0000
     14 S           2.6215   -0.6678    2.2388 S.2     1  UNL1        0.0000
     15 C           4.2390   -0.2283    1.8180 C.ar    1  UNL1        0.0000
     16 C           4.2887    0.2635    0.5421 C.ar    1  UNL1        0.0000
     17 C           5.3920    0.7528   -0.2261 C.2     1  UNL1        0.0000
     18 C           5.0742    1.1771   -1.4689 C.2     1  UNL1        0.0000
     19 SI          3.1993    0.9847   -1.8147 Si      1  UNL1        0.0000
     20 C           3.0102    0.2722   -0.0769 C.ar    1  UNL1        0.0000
     21 H          -2.9679    1.9305    1.2222 H       1  UNL1        0.0000
     22 H          -3.0953    0.5870    2.4365 H       1  UNL1        0.0000
     23 H          -6.1472    0.6620    0.8415 H       1  UNL1        0.0000
     24 H          -6.5048   -1.1384   -1.1821 H       1  UNL1        0.0000
     25 H          -4.2128   -1.9806   -1.8675 H       1  UNL1        0.0000
     26 H           0.8537   -1.8295   -1.1593 H       1  UNL1        0.0000
     27 H          -0.1117    1.0727    1.9096 H       1  UNL1        0.0000
     28 H           5.0408   -0.3570    2.5314 H       1  UNL1        0.0000
     29 H           6.4013    0.7771    0.1687 H       1  UNL1        0.0000
     30 H           5.7354    1.5821   -2.2178 H       1  UNL1        0.0000
     31 H           2.5597    2.3107   -1.9997 H       1  UNL1        0.0000
     32 H           2.9597   -0.0068   -2.8924 H       1  UNL1        0.0000
@<TRIPOS>BOND
     1     1     2    1
     2     2     3   ar
     3     3     4   ar
     4     4     5   ar
     5     5     6   ar
     6     6     7    1
     7     7     8   ar
     8     8     9   ar
     9     9    10   ar
    10    10    11   ar
    11    11    12   ar
    12    10    13    1
    13    13    14   ar
    14    14    15   ar
    15    15    16   ar
    16    16    17    1
    17    17    18    2
    18    18    19    1
    19    19    20    1
    20    12     1    1
    21    20    13   ar
    22     6     2   ar
    23    12     7   ar
    24    20    16   ar
    25     1    21    1
    26     1    22    1
    27     3    23    1
    28     4    24    1
    29     5    25    1
    30     9    26    1
    31    11    27    1
    32    15    28    1
    33    17    29    1
    34    18    30    1
    35    19    31    1
    36    19    32    1
