@<TRIPOS>MOLECULE
*****
 42 48 0 0 0
SMALL
GASTEIGER

@<TRIPOS>ATOM
      1 C          -1.4112    2.3261   -0.9211 C.3     1  UNL1        0.0000
      2 C          -2.8055    1.8067   -0.5298 C.ar    1  UNL1        0.0000
      3 C          -3.9973    2.4848   -0.7122 C.ar    1  UNL1        0.0000
      4 C          -5.1787    1.8643   -0.2974 C.ar    1  UNL1        0.0000
      5 C          -5.1820    0.5785    0.2953 C.ar    1  UNL1        0.0000
      6 C          -6.3901   -0.0124    0.6993 C.ar    1  UNL1        0.0000
      7 C          -6.4128   -1.2787    1.2851 C.ar    1  UNL1        0.0000
      8 C          -5.2258   -1.9759    1.4767 C.ar    1  UNL1        0.0000
      9 C          -4.0129   -1.4082    1.0829 C.ar    1  UNL1        0.0000
     10 C          -3.9664   -0.1285    0.4884 C.ar    1  UNL1        0.0000
     11 C          -2.7955    0.5109    0.0662 C.ar    1  UNL1        0.0000
     12 C          -1.4091    0.1430    0.0848 C.ar    1  UNL1        0.0000
     13 N          -0.6351   -0.9070    0.4850 N.ar    1  UNL1        0.0000
     14 C           0.6579   -0.5641    0.1867 C.ar    1  UNL1        0.0000
     15 C           1.8293   -1.3237    0.4104 C.2     1  UNL1        0.0000
     16 C           2.9347   -0.6570   -0.0167 C.2     1  UNL1        0.0000
     17 SI          2.4373    1.1042   -0.7754 Si      1  UNL1        0.0000
     18 C           0.6681    0.6891   -0.3924 C.ar    1  UNL1        0.0000
     19 C          -0.6297    1.1454   -0.4620 C.ar    1  UNL1        0.0000
     20 C           4.2702   -1.1272    0.0559 C.ar    1  UNL1        0.0000
     21 S           4.7299   -2.6825    0.7199 S.2     1  UNL1        0.0000
     22 C           6.4243   -2.4503    0.4321 C.ar    1  UNL1        0.0000
     23 C           6.5752   -1.2397   -0.1393 C.ar    1  UNL1        0.0000
     24 C           7.5941   -0.4102   -0.6288 C.ar    1  UNL1        0.0000
     25 C           6.9338    0.7363   -1.0839 C.ar    1  UNL1        0.0000
     26 O           5.5619    0.7024   -0.9215 O.2     1  UNL1        0.0000
     27 C           5.4177   -0.5253   -0.3431 C.ar    1  UNL1        0.0000
     28 H          -1.3374    2.4740   -2.0013 H       1  UNL1        0.0000
     29 H          -1.1587    3.2300   -0.3614 H       1  UNL1        0.0000
     30 H          -4.0202    3.4709   -1.1641 H       1  UNL1        0.0000
     31 H          -6.1184    2.3957   -0.4398 H       1  UNL1        0.0000
     32 H          -7.3319    0.5142    0.5595 H       1  UNL1        0.0000
     33 H          -7.3586   -1.7183    1.5907 H       1  UNL1        0.0000
     34 H          -5.2417   -2.9623    1.9328 H       1  UNL1        0.0000
     35 H          -3.1051   -1.9770    1.2459 H       1  UNL1        0.0000
     36 H          -0.9448   -1.7664    0.9153 H       1  UNL1        0.0000
     37 H           1.8160   -2.3055    0.8648 H       1  UNL1        0.0000
     38 H           2.7310    1.1666   -2.2324 H       1  UNL1        0.0000
     39 H           2.9775    2.2190    0.0483 H       1  UNL1        0.0000
     40 H           7.1531   -3.2021    0.6989 H       1  UNL1        0.0000
     41 H           8.6594   -0.5869   -0.6617 H       1  UNL1        0.0000
     42 H           7.2976    1.6475   -1.5407 H       1  UNL1        0.0000
@<TRIPOS>BOND
     1     1     2    1
     2     2     3   ar
     3     3     4   ar
     4     4     5   ar
     5     5     6   ar
     6     6     7   ar
     7     7     8   ar
     8     8     9   ar
     9     9    10   ar
    10    10    11   ar
    11    11    12    1
    12    12    13   ar
    13    13    14   ar
    14    14    15    1
    15    15    16    2
    16    16    17    1
    17    17    18    1
    18    18    19   ar
    19    16    20    1
    20    20    21   ar
    21    21    22   ar
    22    22    23   ar
    23    23    24   ar
    24    24    25   ar
    25    25    26   ar
    26    26    27   ar
    27    19     1    1
    28    27    20   ar
    29    11     2   ar
    30    19    12   ar
    31    27    23   ar
    32    10     5   ar
    33    18    14   ar
    34     1    28    1
    35     1    29    1
    36     3    30    1
    37     4    31    1
    38     6    32    1
    39     7    33    1
    40     8    34    1
    41     9    35    1
    42    13    36    1
    43    15    37    1
    44    17    38    1
    45    17    39    1
    46    22    40    1
    47    24    41    1
    48    25    42    1
