@<TRIPOS>MOLECULE
*****
 41 46 0 0 0
SMALL
GASTEIGER

@<TRIPOS>ATOM
      1 C          -1.5361   -1.4980   -1.9489 C.3     1  UNL1        0.0023
      2 C          -2.8282   -1.0338   -1.2516 C.ar    1  UNL1       -0.0332
      3 C          -4.1163   -1.3212   -1.6647 C.ar    1  UNL1       -0.0570
      4 C          -5.1779   -0.8161   -0.9089 C.ar    1  UNL1       -0.0537
      5 C          -4.9667   -0.0304    0.2503 C.ar    1  UNL1       -0.0172
      6 C          -6.0590    0.4594    0.9839 C.ar    1  UNL1       -0.0540
      7 C          -5.8692    1.2349    2.1284 C.ar    1  UNL1       -0.0612
      8 C          -4.5817    1.5338    2.5588 C.ar    1  UNL1       -0.0611
      9 C          -3.4804    1.0578    1.8455 C.ar    1  UNL1       -0.0534
     10 C          -3.6498    0.2717    0.6851 C.ar    1  UNL1       -0.0085
     11 C          -2.6029   -0.2436   -0.0859 C.ar    1  UNL1        0.0098
     12 C          -1.1762   -0.1687    0.0120 C.ar    1  UNL1        0.0534
     13 N          -0.2286    0.3777    0.8086 N.ar    1  UNL1       -0.3526
     14 C           1.0145    0.0371    0.2960 C.ar    1  UNL1        0.0663
     15 C           2.3059    0.3431    0.7333 C.ar    1  UNL1       -0.0271
     16 C           3.3724   -0.1597   -0.0269 C.ar    1  UNL1        0.0036
     17 C           3.0543   -0.9267   -1.1546 C.ar    1  UNL1        0.0361
     18 N           1.8147   -1.2390   -1.6036 N.ar    1  UNL1       -0.2526
     19 C           0.8076   -0.7399   -0.8525 C.ar    1  UNL1        0.0925
     20 C          -0.5763   -0.8578   -1.0121 C.ar    1  UNL1        0.0082
     21 C           4.7664    0.1088    0.3467 C.ar    1  UNL1        0.0017
     22 C           5.6898    0.6370   -0.5652 C.ar    1  UNL1       -0.0511
     23 C           7.0051    0.8821   -0.1736 C.ar    1  UNL1       -0.0430
     24 C           7.3675    0.5916    1.1300 C.ar    1  UNL1        0.0276
     25 N           6.5176    0.0829    2.0451 N.ar    1  UNL1       -0.2627
     26 C           5.2469   -0.1464    1.6324 C.ar    1  UNL1        0.0353
     27 H          -1.4572   -2.5878   -1.9409 H       1  UNL1        0.0363
     28 H          -1.4664   -1.0850   -2.9582 H       1  UNL1        0.0363
     29 H          -4.3033   -1.9211   -2.5493 H       1  UNL1        0.0621
     30 H          -6.1936   -1.0406   -1.2314 H       1  UNL1        0.0624
     31 H          -7.0762    0.2385    0.6667 H       1  UNL1        0.0624
     32 H          -6.7285    1.6042    2.6821 H       1  UNL1        0.0618
     33 H          -4.4333    2.1376    3.4503 H       1  UNL1        0.0618
     34 H          -2.4900    1.3082    2.2071 H       1  UNL1        0.0624
     35 H          -0.3805    0.9376    1.6347 H       1  UNL1        0.1660
     36 H           2.4693    0.9557    1.6139 H       1  UNL1        0.0645
     37 H           3.8490   -1.3499   -1.7675 H       1  UNL1        0.0836
     38 H           5.3889    0.8749   -1.5833 H       1  UNL1        0.0625
     39 H           7.7276    1.2939   -0.8694 H       1  UNL1        0.0633
     40 H           8.3798    0.7662    1.4831 H       1  UNL1        0.0829
     41 H           4.6012   -0.5690    2.3990 H       1  UNL1        0.0836
@<TRIPOS>BOND
     1     1     2    1
     2     2     3   ar
     3     3     4   ar
     4     4     5   ar
     5     5     6   ar
     6     6     7   ar
     7     7     8   ar
     8     8     9   ar
     9     9    10   ar
    10    10    11   ar
    11    11    12    1
    12    12    13   ar
    13    13    14   ar
    14    14    15   ar
    15    15    16   ar
    16    16    17   ar
    17    17    18   ar
    18    18    19   ar
    19    19    20   ar
    20    16    21    1
    21    21    22   ar
    22    22    23   ar
    23    23    24   ar
    24    24    25   ar
    25    25    26   ar
    26    20     1    1
    27    26    21   ar
    28    11     2   ar
    29    20    12   ar
    30    10     5   ar
    31    19    14   ar
    32     1    27    1
    33     1    28    1
    34     3    29    1
    35     4    30    1
    36     6    31    1
    37     7    32    1
    38     8    33    1
    39     9    34    1
    40    13    35    1
    41    15    36    1
    42    17    37    1
    43    22    38    1
    44    23    39    1
    45    24    40    1
    46    26    41    1
