@<TRIPOS>MOLECULE
*****
 36 41 0 0 0
SMALL
GASTEIGER

@<TRIPOS>ATOM
      1 C          -0.2779   -1.7206   -1.4731 C.3     1  UNL1        0.0037
      2 C          -1.7247   -1.3340   -1.0960 C.ar    1  UNL1       -0.0332
      3 C          -2.8719   -1.9145   -1.6051 C.ar    1  UNL1       -0.0570
      4 C          -4.1061   -1.4398   -1.1515 C.ar    1  UNL1       -0.0537
      5 C          -4.2066   -0.3960   -0.1988 C.ar    1  UNL1       -0.0172
      6 C          -5.4651    0.0533    0.2321 C.ar    1  UNL1       -0.0540
      7 C          -5.5817    1.0804    1.1698 C.ar    1  UNL1       -0.0612
      8 C          -4.4400    1.6762    1.6932 C.ar    1  UNL1       -0.0611
      9 C          -3.1782    1.2462    1.2798 C.ar    1  UNL1       -0.0534
     10 C          -3.0381    0.2092    0.3326 C.ar    1  UNL1       -0.0085
     11 C          -1.8137   -0.2789   -0.1332 C.ar    1  UNL1        0.0099
     12 C          -0.4473    0.0564    0.1487 C.ar    1  UNL1        0.0549
     13 N           0.2626    0.9200    0.9228 N.ar    1  UNL1       -0.3513
     14 C           1.5961    0.6594    0.6619 C.ar    1  UNL1        0.0864
     15 C           2.9077    1.0486    0.9931 C.ar    1  UNL1        0.0103
     16 C           3.7140    0.2181    0.2221 C.ar    1  UNL1        0.1626
     17 O           2.9511   -0.6418   -0.5475 O.2     1  UNL1       -0.4509
     18 C           1.6655   -0.3422   -0.2516 C.ar    1  UNL1        0.1573
     19 C           0.3843   -0.7446   -0.5955 C.ar    1  UNL1        0.0251
     20 C           5.1557    0.2153    0.1936 C.ar    1  UNL1        0.1433
     21 N           5.8800    1.0373    0.9292 N.ar    1  UNL1       -0.2442
     22 C           7.2224    0.8091    0.6970 C.ar    1  UNL1        0.0356
     23 C           7.5091   -0.1843   -0.2131 C.ar    1  UNL1       -0.0041
     24 S           6.0506   -0.8623   -0.8041 S.2     1  UNL1       -0.0727
     25 H          -0.0886   -1.5320   -2.5324 H       1  UNL1        0.0363
     26 H          -0.0654   -2.7543   -1.1906 H       1  UNL1        0.0363
     27 H          -2.8220   -2.7152   -2.3355 H       1  UNL1        0.0621
     28 H          -5.0117   -1.8947   -1.5504 H       1  UNL1        0.0624
     29 H          -6.3733   -0.3973   -0.1630 H       1  UNL1        0.0624
     30 H          -6.5656    1.4134    1.4900 H       1  UNL1        0.0618
     31 H          -4.5298    2.4761    2.4234 H       1  UNL1        0.0618
     32 H          -2.3060    1.7294    1.7052 H       1  UNL1        0.0624
     33 H          -0.0640    1.6248    1.5705 H       1  UNL1        0.1660
     34 H           3.2450    1.8104    1.6809 H       1  UNL1        0.0677
     35 H           7.9590    1.4029    1.2245 H       1  UNL1        0.0835
     36 H           8.4745   -0.5338   -0.5490 H       1  UNL1        0.0709
@<TRIPOS>BOND
     1     1     2    1
     2     2     3   ar
     3     3     4   ar
     4     4     5   ar
     5     5     6   ar
     6     6     7   ar
     7     7     8   ar
     8     8     9   ar
     9     9    10   ar
    10    10    11   ar
    11    11    12    1
    12    12    13   ar
    13    13    14   ar
    14    14    15   ar
    15    15    16   ar
    16    16    17   ar
    17    17    18   ar
    18    18    19   ar
    19    16    20    1
    20    20    21   ar
    21    21    22   ar
    22    22    23   ar
    23    23    24   ar
    24    19     1    1
    25    24    20   ar
    26    11     2   ar
    27    19    12   ar
    28    10     5   ar
    29    18    14   ar
    30     1    25    1
    31     1    26    1
    32     3    27    1
    33     4    28    1
    34     6    29    1
    35     7    30    1
    36     8    31    1
    37     9    32    1
    38    13    33    1
    39    15    34    1
    40    22    35    1
    41    23    36    1
