@<TRIPOS>MOLECULE
*****
 39 45 0 0 0
SMALL
GASTEIGER

@<TRIPOS>ATOM
      1 C          -1.9352   -2.1280   -0.9517 C.3     1  UNL1        0.0022
      2 C          -3.3445   -1.5350   -0.6771 C.ar    1  UNL1       -0.0331
      3 C          -4.5875   -2.1786   -0.9563 C.ar    1  UNL1       -0.0569
      4 C          -5.8458   -1.5723   -0.6768 C.ar    1  UNL1       -0.0507
      5 C          -5.7061   -0.3000   -0.1090 C.ar    1  UNL1        0.0205
      6 C          -6.6951    0.5613    0.2826 C.ar    1  UNL1        0.0994
      7 O          -6.1316    1.7052    0.7900 O.2     1  UNL1       -0.4698
      8 C          -4.7680    1.5681    0.7196 C.ar    1  UNL1        0.1000
      9 C          -4.4674    0.3527    0.1743 C.ar    1  UNL1        0.0292
     10 C          -3.2521   -0.2275   -0.0932 C.ar    1  UNL1        0.0128
     11 C          -1.8824    0.0831    0.0363 C.ar    1  UNL1        0.0534
     12 N          -1.0917    1.0852    0.4787 N.ar    1  UNL1       -0.3527
     13 C           0.2055    0.6517    0.2758 C.ar    1  UNL1        0.0656
     14 C           1.5533    1.0541    0.4462 C.ar    1  UNL1       -0.0119
     15 C           2.3203   -0.0012   -0.0310 C.ar    1  UNL1        0.0562
     16 N           1.4776   -1.0029   -0.4727 N.ar    1  UNL1       -0.3523
     17 C           0.1892   -0.5991   -0.2831 C.ar    1  UNL1        0.0688
     18 C          -1.1497   -0.9742   -0.4414 C.ar    1  UNL1        0.0061
     19 C           3.7516   -0.1263   -0.0972 C.ar    1  UNL1        0.0447
     20 S           4.5405   -1.5498   -0.7395 S.2     1  UNL1       -0.0925
     21 C           6.1396   -0.9352   -0.4762 C.ar    1  UNL1        0.0002
     22 C           6.0238    0.2895    0.0724 C.ar    1  UNL1        0.0542
     23 N           7.0461    1.1172    0.4352 N.ar    1  UNL1       -0.3602
     24 C           6.3442    2.2129    0.9303 C.ar    1  UNL1        0.0028
     25 C           4.9492    2.0132    0.8511 C.ar    1  UNL1       -0.0355
     26 C           4.7336    0.7286    0.2781 C.ar    1  UNL1        0.0158
     27 H          -1.7875   -2.2925   -2.0216 H       1  UNL1        0.0363
     28 H          -1.7762   -3.0341   -0.3625 H       1  UNL1        0.0363
     29 H          -4.5760   -3.1728   -1.4009 H       1  UNL1        0.0621
     30 H          -6.7901   -2.0561   -0.8867 H       1  UNL1        0.0625
     31 H          -7.7753    0.5382    0.2795 H       1  UNL1        0.1035
     32 H          -4.1962    2.4058    1.0901 H       1  UNL1        0.1036
     33 H          -1.3417    1.9793    0.8800 H       1  UNL1        0.1660
     34 H           1.9109    1.9853    0.8599 H       1  UNL1        0.0660
     35 H           1.7450   -1.8924   -0.8722 H       1  UNL1        0.1660
     36 H           7.0280   -1.4944   -0.7327 H       1  UNL1        0.0714
     37 H           8.0418    0.9524    0.3542 H       1  UNL1        0.1653
     38 H           6.8972    3.0639    1.3069 H       1  UNL1        0.0807
     39 H           4.2027    2.7251    1.1749 H       1  UNL1        0.0639
@<TRIPOS>BOND
     1     1     2    1
     2     2     3   ar
     3     3     4   ar
     4     4     5   ar
     5     5     6   ar
     6     6     7   ar
     7     7     8   ar
     8     8     9   ar
     9     9    10   ar
    10    10    11    1
    11    11    12   ar
    12    12    13   ar
    13    13    14   ar
    14    14    15   ar
    15    15    16   ar
    16    16    17   ar
    17    17    18   ar
    18    15    19    1
    19    19    20   ar
    20    20    21   ar
    21    21    22   ar
    22    22    23   ar
    23    23    24   ar
    24    24    25   ar
    25    25    26   ar
    26    18     1    1
    27    26    19   ar
    28    10     2   ar
    29    18    11   ar
    30    26    22   ar
    31     9     5   ar
    32    17    13   ar
    33     1    27    1
    34     1    28    1
    35     3    29    1
    36     4    30    1
    37     6    31    1
    38     8    32    1
    39    12    33    1
    40    14    34    1
    41    16    35    1
    42    21    36    1
    43    23    37    1
    44    24    38    1
    45    25    39    1
