@<TRIPOS>MOLECULE
*****
 41 46 0 0 0
SMALL
GASTEIGER

@<TRIPOS>ATOM
      1 SI          1.8089   -3.7008   -2.0728 Si      1  UNL1        0.0000
      2 C           0.3362   -2.7237   -1.5220 C.2     1  UNL1        0.0000
      3 C           0.6951   -1.5937   -0.8772 C.ar    1  UNL1        0.0000
      4 C          -0.2545   -0.6349   -0.3370 C.ar    1  UNL1        0.0000
      5 C          -1.7220   -0.7192   -0.3893 C.2     1  UNL1        0.0000
      6 C          -2.3978    0.2985    0.1793 C.2     1  UNL1        0.0000
      7 SI         -1.2069    1.5444    0.8945 Si      1  UNL1        0.0000
      8 C           0.2280    0.4693    0.2908 C.ar    1  UNL1        0.0000
      9 C           1.6734    0.7671    0.4667 C.ar    1  UNL1        0.0000
     10 C           2.0861    1.9266    1.1269 C.ar    1  UNL1        0.0000
     11 C           3.4355    2.2188    1.3005 C.ar    1  UNL1        0.0000
     12 C           4.4317    1.3501    0.8141 C.ar    1  UNL1        0.0000
     13 C           5.8586    1.4977    0.9069 C.ar    1  UNL1        0.0000
     14 C           6.5388    0.4627    0.3249 C.ar    1  UNL1        0.0000
     15 S           5.4797   -0.6833   -0.3310 S.2     1  UNL1        0.0000
     16 C           4.0429    0.1739    0.1447 C.ar    1  UNL1        0.0000
     17 C           2.6581   -0.1439   -0.0447 C.ar    1  UNL1        0.0000
     18 C           2.1676   -1.3764   -0.7477 C.ar    1  UNL1        0.0000
     19 C           2.8812   -2.3750   -1.3141 C.2     1  UNL1        0.0000
     20 C          -3.8463    0.4350    0.2648 C.ar    1  UNL1        0.0000
     21 C          -4.5987   -0.5200    0.9615 C.ar    1  UNL1        0.0000
     22 C          -5.9879   -0.4039    1.0482 C.ar    1  UNL1        0.0000
     23 C          -6.6381    0.6645    0.4339 C.ar    1  UNL1        0.0000
     24 C          -5.9010    1.6149   -0.2699 C.ar    1  UNL1        0.0000
     25 C          -4.5113    1.5001   -0.3564 C.ar    1  UNL1        0.0000
     26 H           1.9380   -3.7616   -3.5488 H       1  UNL1        0.0000
     27 H           1.9295   -5.0012   -1.3702 H       1  UNL1        0.0000
     28 H          -0.6613   -3.0751   -1.7275 H       1  UNL1        0.0000
     29 H          -2.2132   -1.5580   -0.8665 H       1  UNL1        0.0000
     30 H          -1.2499    2.8580    0.1994 H       1  UNL1        0.0000
     31 H          -1.2523    1.6271    2.3774 H       1  UNL1        0.0000
     32 H           1.3792    2.6449    1.5308 H       1  UNL1        0.0000
     33 H           3.7208    3.1311    1.8198 H       1  UNL1        0.0000
     34 H           6.3524    2.3350    1.3847 H       1  UNL1        0.0000
     35 H           7.6094    0.3285    0.2559 H       1  UNL1        0.0000
     36 H           3.9418   -2.5110   -1.3887 H       1  UNL1        0.0000
     37 H          -4.1062   -1.3594    1.4477 H       1  UNL1        0.0000
     38 H          -6.5609   -1.1484    1.5946 H       1  UNL1        0.0000
     39 H          -7.7193    0.7538    0.4997 H       1  UNL1        0.0000
     40 H          -6.4077    2.4439   -0.7570 H       1  UNL1        0.0000
     41 H          -3.9576    2.2436   -0.9253 H       1  UNL1        0.0000
@<TRIPOS>BOND
     1     1     2    1
     2     2     3    2
     3     3     4   ar
     4     4     5    1
     5     5     6    2
     6     6     7    1
     7     7     8    1
     8     8     9   ar
     9     9    10   ar
    10    10    11   ar
    11    11    12   ar
    12    12    13   ar
    13    13    14   ar
    14    14    15   ar
    15    15    16   ar
    16    16    17   ar
    17    17    18   ar
    18    18    19    2
    19     6    20    1
    20    20    21   ar
    21    21    22   ar
    22    22    23   ar
    23    23    24   ar
    24    24    25   ar
    25    19     1    1
    26    25    20   ar
    27    18     3   ar
    28     8     4   ar
    29    17     9   ar
    30    16    12   ar
    31     1    26    1
    32     1    27    1
    33     2    28    1
    34     5    29    1
    35     7    30    1
    36     7    31    1
    37    10    32    1
    38    11    33    1
    39    13    34    1
    40    14    35    1
    41    19    36    1
    42    21    37    1
    43    22    38    1
    44    23    39    1
    45    24    40    1
    46    25    41    1
