@<TRIPOS>MOLECULE
*****
 39 46 0 0 0
SMALL
GASTEIGER

@<TRIPOS>ATOM
      1 C          -3.0735    1.4658   -0.7620 C.3     1  UNL1        0.0009
      2 C          -4.0826    0.4592   -0.1504 C.ar    1  UNL1       -0.0317
      3 C          -5.4816    0.5420   -0.2188 C.ar    1  UNL1       -0.0555
      4 C          -6.3060   -0.4407    0.3802 C.ar    1  UNL1       -0.0332
      5 C          -5.6734   -1.5277    1.0614 C.ar    1  UNL1        0.1005
      6 N          -6.2909   -2.5436    1.6832 N.ar    1  UNL1       -0.1908
      7 S          -5.0895   -3.5155    2.3007 S.2     1  UNL1        0.1165
      8 N          -3.7237   -2.6983    1.8098 N.ar    1  UNL1       -0.1901
      9 C          -4.1631   -1.6218    1.1382 C.ar    1  UNL1        0.1092
     10 C          -3.4218   -0.6107    0.5209 C.ar    1  UNL1        0.0302
     11 C          -2.0336   -0.3747    0.3917 C.ar    1  UNL1        0.0535
     12 N          -0.8661   -0.9522    0.7663 N.ar    1  UNL1       -0.3538
     13 C           0.1740   -0.1583    0.2856 C.ar    1  UNL1        0.0500
     14 C           1.5687   -0.2985    0.3896 C.ar    1  UNL1       -0.0274
     15 C           2.4109    0.6771   -0.1935 C.ar    1  UNL1        0.0195
     16 C           3.8564    0.5694   -0.1218 C.ar    1  UNL1        0.0323
     17 S           4.8015    1.7274    0.7783 S.2     1  UNL1       -0.0922
     18 C           6.3083    0.9391    0.4317 C.ar    1  UNL1        0.0192
     19 C           6.0360   -0.1444   -0.3170 C.ar    1  UNL1        0.1424
     20 O           6.9355   -1.0456   -0.7959 O.2     1  UNL1       -0.4624
     21 C           6.0749   -1.8978   -1.4650 C.ar    1  UNL1        0.0932
     22 C           4.7252   -1.5284   -1.3889 C.ar    1  UNL1       -0.0150
     23 C           4.7129   -0.3532   -0.6171 C.ar    1  UNL1        0.0350
     24 C           1.7983    1.7620   -0.8858 C.ar    1  UNL1        0.1088
     25 N           2.4047    2.7797   -1.5368 N.ar    1  UNL1       -0.1901
     26 S           1.1983    3.7593   -2.1577 S.2     1  UNL1        0.1165
     27 N          -0.1690    2.9333   -1.6485 N.ar    1  UNL1       -0.1901
     28 C           0.3539    1.9073   -0.9947 C.ar    1  UNL1        0.1099
     29 C          -0.4423    0.9003   -0.3776 C.ar    1  UNL1        0.0319
     30 C          -1.8198    0.7789   -0.3205 C.ar    1  UNL1       -0.0079
     31 H          -3.1665    1.4946   -1.8502 H       1  UNL1        0.0362
     32 H          -3.1856    2.4522   -0.3057 H       1  UNL1        0.0362
     33 H          -5.9476    1.3759   -0.7411 H       1  UNL1        0.0621
     34 H          -7.3878   -0.3800    0.3295 H       1  UNL1        0.0640
     35 H          -0.7672   -1.8063    1.3011 H       1  UNL1        0.1659
     36 H           1.9985   -1.1438    0.9226 H       1  UNL1        0.0645
     37 H           7.2656    1.2951    0.7824 H       1  UNL1        0.0731
     38 H           6.5725   -2.7262   -1.9523 H       1  UNL1        0.1030
     39 H           3.8955   -2.0508   -1.8427 H       1  UNL1        0.0655
@<TRIPOS>BOND
     1     1     2    1
     2     2     3   ar
     3     3     4   ar
     4     4     5   ar
     5     5     6   ar
     6     6     7   ar
     7     7     8   ar
     8     8     9   ar
     9     9    10   ar
    10    10    11    1
    11    11    12   ar
    12    12    13   ar
    13    13    14   ar
    14    14    15   ar
    15    15    16    1
    16    16    17   ar
    17    17    18   ar
    18    18    19   ar
    19    19    20   ar
    20    20    21   ar
    21    21    22   ar
    22    22    23   ar
    23    15    24   ar
    24    24    25   ar
    25    25    26   ar
    26    26    27   ar
    27    27    28   ar
    28    28    29   ar
    29    29    30   ar
    30    30     1    1
    31    10     2   ar
    32    30    11   ar
    33     9     5   ar
    34    29    13   ar
    35    23    16   ar
    36    28    24   ar
    37    23    19   ar
    38     1    31    1
    39     1    32    1
    40     3    33    1
    41     4    34    1
    42    12    35    1
    43    14    36    1
    44    18    37    1
    45    21    38    1
    46    22    39    1
