@<TRIPOS>MOLECULE
*****
 40 46 0 0 0
SMALL
GASTEIGER

@<TRIPOS>ATOM
      1 C          -3.5096    0.1209   -1.3176 C.3     1  UNL1        0.0023
      2 C          -4.6308    0.2994   -0.2850 C.ar    1  UNL1       -0.0156
      3 C          -5.9852    0.4663   -0.4863 C.ar    1  UNL1       -0.0547
      4 C          -6.7880    0.6073    0.6507 C.ar    1  UNL1       -0.0433
      5 C          -6.2008    0.5749    1.9257 C.ar    1  UNL1        0.0283
      6 N          -4.8777    0.4134    2.1631 N.ar    1  UNL1       -0.2532
      7 C          -4.1657    0.2844    1.0434 C.ar    1  UNL1        0.0908
      8 C          -2.7629    0.1018    0.9612 C.ar    1  UNL1        0.0698
      9 N          -1.7106   -0.0061    1.8083 N.ar    1  UNL1       -0.3527
     10 C          -0.5617   -0.1804    1.0404 C.ar    1  UNL1        0.0485
     11 C           0.8008   -0.3449    1.4112 C.ar    1  UNL1       -0.0288
     12 C           1.8098   -0.5041    0.4243 C.ar    1  UNL1        0.0020
     13 C           3.2180   -0.6576    0.7291 C.ar    1  UNL1        0.0293
     14 S           3.7658   -1.9333    1.7848 S.2     1  UNL1       -0.0939
     15 C           5.4399   -1.4893    1.6482 C.ar    1  UNL1        0.0002
     16 C           5.5162   -0.4165    0.8361 C.ar    1  UNL1        0.0542
     17 N           6.6449    0.2550    0.4676 N.ar    1  UNL1       -0.3602
     18 C           6.1123    1.2494   -0.3513 C.ar    1  UNL1        0.0028
     19 C           4.7075    1.1474   -0.4470 C.ar    1  UNL1       -0.0356
     20 C           4.3137    0.0334    0.3403 C.ar    1  UNL1        0.0144
     21 C           1.3090   -0.4838   -0.8837 C.ar    1  UNL1        0.0288
     22 C           1.9966   -0.6401   -2.0674 C.ar    1  UNL1        0.1000
     23 O           1.1384   -0.5652   -3.1399 O.2     1  UNL1       -0.4698
     24 C          -0.1270   -0.3697   -2.6438 C.ar    1  UNL1        0.1000
     25 C          -0.0260   -0.3273   -1.2910 C.ar    1  UNL1        0.0299
     26 C          -1.0058   -0.1656   -0.2857 C.ar    1  UNL1        0.0145
     27 C          -2.3729    0.0076   -0.3532 C.ar    1  UNL1       -0.0078
     28 H          -3.6499   -0.7958   -1.8954 H       1  UNL1        0.0363
     29 H          -3.4192    1.0031   -1.9559 H       1  UNL1        0.0363
     30 H          -6.4151    0.4879   -1.4813 H       1  UNL1        0.0621
     31 H          -7.8610    0.7415    0.5540 H       1  UNL1        0.0633
     32 H          -6.8159    0.6836    2.8156 H       1  UNL1        0.0830
     33 H          -1.7551    0.0319    2.8179 H       1  UNL1        0.1660
     34 H           1.0734   -0.3374    2.4644 H       1  UNL1        0.0645
     35 H           6.2262   -2.0268    2.1585 H       1  UNL1        0.0714
     36 H           7.6023    0.0625    0.7354 H       1  UNL1        0.1653
     37 H           6.7826    1.9668   -0.8073 H       1  UNL1        0.0807
     38 H           4.0690    1.8086   -1.0185 H       1  UNL1        0.0639
     39 H           3.0331   -0.8066   -2.3263 H       1  UNL1        0.1036
     40 H          -0.9186   -0.2966   -3.3740 H       1  UNL1        0.1036
@<TRIPOS>BOND
     1     1     2    1
     2     2     3   ar
     3     3     4   ar
     4     4     5   ar
     5     5     6   ar
     6     6     7   ar
     7     7     8    1
     8     8     9   ar
     9     9    10   ar
    10    10    11   ar
    11    11    12   ar
    12    12    13    1
    13    13    14   ar
    14    14    15   ar
    15    15    16   ar
    16    16    17   ar
    17    17    18   ar
    18    18    19   ar
    19    19    20   ar
    20    12    21   ar
    21    21    22   ar
    22    22    23   ar
    23    23    24   ar
    24    24    25   ar
    25    25    26   ar
    26    26    27   ar
    27    27     1    1
    28     7     2   ar
    29    27     8   ar
    30    26    10   ar
    31    20    13   ar
    32    25    21   ar
    33    20    16   ar
    34     1    28    1
    35     1    29    1
    36     3    30    1
    37     4    31    1
    38     5    32    1
    39     9    33    1
    40    11    34    1
    41    15    35    1
    42    17    36    1
    43    18    37    1
    44    19    38    1
    45    22    39    1
    46    24    40    1
