@<TRIPOS>MOLECULE
*****
 38 42 0 0 0
SMALL
GASTEIGER

@<TRIPOS>ATOM
      1 C           3.9308   -0.3243   -1.9638 C.ar    1  UNL1       -0.0353
      2 C           2.5459   -0.2867   -2.2590 C.ar    1  UNL1       -0.0358
      3 C           1.8633   -0.1004   -1.0727 C.ar    1  UNL1        0.0476
      4 N           2.8166    0.0158   -0.0849 N.ar    1  UNL1       -0.3537
      5 C           4.0835   -0.1348   -0.6025 C.ar    1  UNL1        0.0551
      6 C           5.2708   -0.0798    0.2058 C.ar    1  UNL1        0.0549
      7 C           5.3862    0.1368    1.5692 C.ar    1  UNL1        0.0439
      8 N           6.6690    0.1344    2.0867 N.ar    1  UNL1       -0.2550
      9 C           7.5210   -0.0823    1.1108 C.ar    1  UNL1        0.0653
     10 S           6.8487   -0.2928   -0.4493 S.2     1  UNL1       -0.0740
     11 C           0.4448    0.0325   -0.8189 C.ar    1  UNL1        0.0090
     12 C          -0.4138    0.8902   -1.5422 C.ar    1  UNL1       -0.0513
     13 C          -1.8193    1.0361   -1.2661 C.ar    1  UNL1       -0.0512
     14 C          -2.5320    0.3304   -0.2537 C.ar    1  UNL1        0.0111
     15 C          -3.9594    0.4869   -0.0055 C.ar    1  UNL1        0.0716
     16 C          -4.8276   -0.5941    0.1424 C.ar    1  UNL1       -0.0357
     17 C          -6.1826   -0.3538    0.3615 C.ar    1  UNL1       -0.0583
     18 C          -6.6402    0.9554    0.4197 C.ar    1  UNL1       -0.0436
     19 C          -5.7203    1.9740    0.2475 C.ar    1  UNL1        0.0283
     20 N          -4.4022    1.7691    0.0311 N.ar    1  UNL1       -0.2550
     21 C          -1.6557   -0.5099    0.4466 C.ar    1  UNL1        0.0296
     22 C          -1.9224   -1.3199    1.5222 C.ar    1  UNL1        0.1000
     23 O          -0.7907   -1.9895    1.8945 O.2     1  UNL1       -0.4698
     24 C           0.2174   -1.5888    1.0641 C.ar    1  UNL1        0.1000
     25 C          -0.2533   -0.6518    0.1796 C.ar    1  UNL1        0.0296
     26 H           4.7286   -0.4691   -2.6813 H       1  UNL1        0.0639
     27 H           2.0937   -0.3983   -3.2366 H       1  UNL1        0.0639
     28 H           2.6026    0.2020    0.8847 H       1  UNL1        0.1659
     29 H           4.5629    0.3054    2.2517 H       1  UNL1        0.0842
     30 H           8.5894   -0.1267    1.2766 H       1  UNL1        0.0907
     31 H           0.0047    1.4953   -2.3475 H       1  UNL1        0.0624
     32 H          -2.3795    1.7430   -1.8830 H       1  UNL1        0.0624
     33 H          -4.4670   -1.6151    0.0701 H       1  UNL1        0.0639
     34 H          -6.8741   -1.1835    0.4785 H       1  UNL1        0.0619
     35 H          -7.6879    1.1774    0.5880 H       1  UNL1        0.0633
     36 H          -6.0263    3.0158    0.2782 H       1  UNL1        0.0830
     37 H          -2.7989   -1.5393    2.1155 H       1  UNL1        0.1036
     38 H           1.1737   -2.0597    1.2420 H       1  UNL1        0.1036
@<TRIPOS>BOND
     1     1     2   ar
     2     2     3   ar
     3     3     4   ar
     4     4     5   ar
     5     5     6    1
     6     6     7   ar
     7     7     8   ar
     8     8     9   ar
     9     9    10   ar
    10     3    11    1
    11    11    12   ar
    12    12    13   ar
    13    13    14   ar
    14    14    15    1
    15    15    16   ar
    16    16    17   ar
    17    17    18   ar
    18    18    19   ar
    19    19    20   ar
    20    14    21   ar
    21    21    22   ar
    22    22    23   ar
    23    23    24   ar
    24    24    25   ar
    25     5     1   ar
    26    10     6   ar
    27    25    11   ar
    28    20    15   ar
    29    25    21   ar
    30     1    26    1
    31     2    27    1
    32     4    28    1
    33     7    29    1
    34     9    30    1
    35    12    31    1
    36    13    32    1
    37    16    33    1
    38    17    34    1
    39    18    35    1
    40    19    36    1
    41    22    37    1
    42    24    38    1
