@<TRIPOS>MOLECULE
*****
 42 47 0 0 0
SMALL
GASTEIGER

@<TRIPOS>ATOM
      1 C           1.4215    1.7037   -1.6277 C.ar    1  UNL1       -0.0353
      2 C           2.8301    1.6028   -1.7527 C.ar    1  UNL1       -0.0358
      3 C           3.2776    0.5744   -0.9355 C.ar    1  UNL1        0.0469
      4 N           2.1454    0.0690   -0.3305 N.ar    1  UNL1       -0.3537
      5 C           1.0114    0.7368   -0.7343 C.ar    1  UNL1        0.0557
      6 C          -0.2943    0.3853   -0.2357 C.ar    1  UNL1        0.0635
      7 S          -1.6999    1.2149   -0.7377 S.2     1  UNL1       -0.0823
      8 C          -2.7941    0.2821    0.2291 C.ar    1  UNL1        0.0495
      9 C          -4.2612    0.5488    0.2203 C.ar    1  UNL1        0.0190
     10 C          -5.1771   -0.2056    1.0071 C.ar    1  UNL1       -0.0513
     11 C          -6.5804   -0.0108    1.0506 C.ar    1  UNL1       -0.0590
     12 C          -7.2336    0.9709    0.3042 C.ar    1  UNL1       -0.0335
     13 C          -6.4064    1.7729   -0.5102 C.ar    1  UNL1        0.1005
     14 N          -6.8515    2.7649   -1.2966 N.ar    1  UNL1       -0.1908
     15 S          -5.5221    3.4027   -2.0454 S.2     1  UNL1        0.1165
     16 N          -4.3299    2.4548   -1.4092 N.ar    1  UNL1       -0.1901
     17 C          -4.8957    1.5723   -0.5648 C.ar    1  UNL1        0.1081
     18 C          -2.0519   -0.6632    0.9305 C.ar    1  UNL1        0.1046
     19 N          -2.5965   -1.5731    1.7950 N.ar    1  UNL1       -0.2508
     20 C          -1.6559   -2.3804    2.3480 C.ar    1  UNL1        0.0464
     21 C          -0.2873   -2.3150    2.0859 C.ar    1  UNL1        0.0464
     22 N           0.3019   -1.4331    1.2388 N.ar    1  UNL1       -0.2507
     23 C          -0.6264   -0.6025    0.6639 C.ar    1  UNL1        0.1059
     24 C           4.6352    0.0558   -0.6936 C.ar    1  UNL1       -0.0017
     25 C           4.8764   -1.0106    0.1874 C.ar    1  UNL1       -0.0526
     26 C           6.1733   -1.4900    0.4047 C.ar    1  UNL1       -0.0611
     27 C           7.2529   -0.9115   -0.2553 C.ar    1  UNL1       -0.0617
     28 C           7.0363    0.1460   -1.1325 C.ar    1  UNL1       -0.0611
     29 C           5.7394    0.6239   -1.3484 C.ar    1  UNL1       -0.0526
     30 H           0.7848    2.4125   -2.1416 H       1  UNL1        0.0639
     31 H           3.4482    2.2278   -2.3834 H       1  UNL1        0.0639
     32 H           2.1172   -0.6957    0.3314 H       1  UNL1        0.1659
     33 H          -4.8057   -1.0086    1.6421 H       1  UNL1        0.0624
     34 H          -7.1734   -0.6586    1.6971 H       1  UNL1        0.0618
     35 H          -8.3065    1.1139    0.3426 H       1  UNL1        0.0640
     36 H          -2.0420   -3.1211    3.0431 H       1  UNL1        0.0845
     37 H           0.3939   -3.0047    2.5767 H       1  UNL1        0.0845
     38 H           4.0662   -1.4935    0.7247 H       1  UNL1        0.0624
     39 H           6.3370   -2.3166    1.0912 H       1  UNL1        0.0618
     40 H           8.2598   -1.2834   -0.0869 H       1  UNL1        0.0618
     41 H           7.8743    0.6033   -1.6519 H       1  UNL1        0.0618
     42 H           5.6086    1.4512   -2.0405 H       1  UNL1        0.0624
@<TRIPOS>BOND
     1     1     2   ar
     2     2     3   ar
     3     3     4   ar
     4     4     5   ar
     5     5     6    1
     6     6     7   ar
     7     7     8   ar
     8     8     9    1
     9     9    10   ar
    10    10    11   ar
    11    11    12   ar
    12    12    13   ar
    13    13    14   ar
    14    14    15   ar
    15    15    16   ar
    16    16    17   ar
    17     8    18   ar
    18    18    19   ar
    19    19    20   ar
    20    20    21   ar
    21    21    22   ar
    22    22    23   ar
    23     3    24    1
    24    24    25   ar
    25    25    26   ar
    26    26    27   ar
    27    27    28   ar
    28    28    29   ar
    29     5     1   ar
    30    23     6   ar
    31    29    24   ar
    32    17     9   ar
    33    23    18   ar
    34    17    13   ar
    35     1    30    1
    36     2    31    1
    37     4    32    1
    38    10    33    1
    39    11    34    1
    40    12    35    1
    41    20    36    1
    42    21    37    1
    43    25    38    1
    44    26    39    1
    45    27    40    1
    46    28    41    1
    47    29    42    1
