@<TRIPOS>MOLECULE
*****
 39 44 0 0 0
SMALL
GASTEIGER

@<TRIPOS>ATOM
      1 C          -2.9962   -3.0680   -1.4519 C.ar    1  UNL1       -0.0592
      2 C          -1.7375   -2.7528   -0.9495 C.ar    1  UNL1       -0.0519
      3 C          -1.4535   -1.4767   -0.4200 C.ar    1  UNL1        0.0101
      4 C          -0.1049   -1.1491    0.0402 C.ar    1  UNL1        0.0736
      5 C           0.6968   -0.2493   -0.6630 C.ar    1  UNL1       -0.0117
      6 C           1.9680   -0.0278   -0.1358 C.ar    1  UNL1        0.0510
      7 N           2.9855    0.7887   -0.5683 N.ar    1  UNL1       -0.3540
      8 C           4.0725    0.6953    0.2679 C.ar    1  UNL1        0.0504
      9 C           5.3093    1.3352    0.2212 C.ar    1  UNL1       -0.0196
     10 C           6.1826    0.9961    1.2434 C.ar    1  UNL1        0.0295
     11 N           5.9116    0.1198    2.2353 N.ar    1  UNL1       -0.2625
     12 C           4.7008   -0.4905    2.2587 C.ar    1  UNL1        0.0373
     13 C           3.7452   -0.2170    1.2715 C.ar    1  UNL1        0.0269
     14 C           2.4149   -0.6746    1.0147 C.ar    1  UNL1        0.0270
     15 C           1.5505   -1.5755    1.6468 C.ar    1  UNL1        0.0380
     16 N           0.3090   -1.8056    1.1519 N.ar    1  UNL1       -0.2542
     17 C          -2.4992   -0.5132   -0.3687 C.ar    1  UNL1        0.0166
     18 C          -3.7451   -0.8638   -0.8998 C.ar    1  UNL1        0.0481
     19 C          -4.0204   -2.1227   -1.4471 C.ar    1  UNL1       -0.0377
     20 N          -4.5714    0.2269   -0.7679 N.ar    1  UNL1       -0.3529
     21 C          -3.9245    1.2628   -0.1444 C.ar    1  UNL1        0.0658
     22 C          -4.3810    2.5296    0.1972 C.ar    1  UNL1        0.0514
     23 N          -3.5503    3.3794    0.8394 N.ar    1  UNL1       -0.2612
     24 C          -2.3035    2.9636    1.1461 C.ar    1  UNL1        0.0283
     25 C          -1.7860    1.7159    0.8310 C.ar    1  UNL1       -0.0338
     26 C          -2.6307    0.8293    0.1412 C.ar    1  UNL1        0.0109
     27 H          -3.1805   -4.0609   -1.8554 H       1  UNL1        0.0618
     28 H          -0.9516   -3.5065   -0.9693 H       1  UNL1        0.0624
     29 H           0.3455    0.2469   -1.5600 H       1  UNL1        0.0660
     30 H           2.9401    1.3778   -1.3878 H       1  UNL1        0.1659
     31 H           5.5781    2.0445   -0.5504 H       1  UNL1        0.0653
     32 H           7.1723    1.4439    1.2918 H       1  UNL1        0.0830
     33 H           4.5299   -1.1850    3.0733 H       1  UNL1        0.0836
     34 H           1.8172   -2.1249    2.5424 H       1  UNL1        0.0836
     35 H          -5.0006   -2.3678   -1.8443 H       1  UNL1        0.0638
     36 H          -5.5338    0.2512   -1.0720 H       1  UNL1        0.1659
     37 H          -5.3808    2.8865   -0.0168 H       1  UNL1        0.0851
     38 H          -1.6982    3.6899    1.6822 H       1  UNL1        0.0830
     39 H          -0.7802    1.4483    1.1294 H       1  UNL1        0.0639
@<TRIPOS>BOND
     1     1     2   ar
     2     2     3   ar
     3     3     4    1
     4     4     5   ar
     5     5     6   ar
     6     6     7   ar
     7     7     8   ar
     8     8     9   ar
     9     9    10   ar
    10    10    11   ar
    11    11    12   ar
    12    12    13   ar
    13    13    14   ar
    14    14    15   ar
    15    15    16   ar
    16     3    17   ar
    17    17    18   ar
    18    18    19   ar
    19    18    20   ar
    20    20    21   ar
    21    21    22   ar
    22    22    23   ar
    23    23    24   ar
    24    24    25   ar
    25    25    26   ar
    26    19     1   ar
    27    26    21   ar
    28    16     4   ar
    29    26    17   ar
    30    14     6   ar
    31    13     8   ar
    32     1    27    1
    33     2    28    1
    34     5    29    1
    35     7    30    1
    36     9    31    1
    37    10    32    1
    38    12    33    1
    39    15    34    1
    40    19    35    1
    41    20    36    1
    42    22    37    1
    43    24    38    1
    44    25    39    1
