@<TRIPOS>MOLECULE
*****
 38 43 0 0 0
SMALL
GASTEIGER

@<TRIPOS>ATOM
      1 C          -3.5592   -1.9127   -2.4644 C.ar    1  UNL1       -0.0576
      2 C          -2.2273   -1.8931   -2.0469 C.ar    1  UNL1       -0.0518
      3 C          -1.7739   -0.9959   -1.0551 C.ar    1  UNL1        0.0118
      4 C          -0.3685   -0.9525   -0.6620 C.ar    1  UNL1        0.0736
      5 C           0.4484    0.1200   -1.0200 C.ar    1  UNL1       -0.0117
      6 C           1.7723    0.0430   -0.5903 C.ar    1  UNL1        0.0510
      7 N           2.8212    0.9143   -0.7643 N.ar    1  UNL1       -0.3540
      8 C           3.9583    0.4331   -0.1600 C.ar    1  UNL1        0.0504
      9 C           5.2394    0.9749   -0.0781 C.ar    1  UNL1       -0.0196
     10 C           6.1574    0.2042    0.6188 C.ar    1  UNL1        0.0295
     11 N           5.8888   -0.9877    1.1953 N.ar    1  UNL1       -0.2625
     12 C           4.6348   -1.4950    1.1005 C.ar    1  UNL1        0.0373
     13 C           3.6321   -0.7941    0.4180 C.ar    1  UNL1        0.0269
     14 C           2.2506   -1.0410    0.1436 C.ar    1  UNL1        0.0270
     15 C           1.3632   -2.0798    0.4463 C.ar    1  UNL1        0.0380
     16 N           0.0707   -2.0256    0.0387 N.ar    1  UNL1       -0.2542
     17 C          -2.7202   -0.1271   -0.4571 C.ar    1  UNL1        0.0387
     18 C          -4.0347   -0.1761   -0.9154 C.ar    1  UNL1        0.1389
     19 C          -4.4942   -1.0392   -1.9089 C.ar    1  UNL1       -0.0186
     20 O          -4.8106    0.7303   -0.2659 O.2     1  UNL1       -0.4368
     21 C          -4.0205    1.3605    0.6428 C.ar    1  UNL1        0.2284
     22 N          -4.4843    2.3195    1.4661 N.ar    1  UNL1       -0.2205
     23 C          -3.5447    2.7975    2.3085 C.ar    1  UNL1        0.0314
     24 C          -2.2211    2.3834    2.3640 C.ar    1  UNL1       -0.0428
     25 C          -1.7839    1.3919    1.4852 C.ar    1  UNL1       -0.0474
     26 C          -2.7198    0.8607    0.5788 C.ar    1  UNL1        0.0482
     27 H          -3.8720   -2.6169   -3.2325 H       1  UNL1        0.0619
     28 H          -1.5189   -2.5870   -2.4987 H       1  UNL1        0.0624
     29 H           0.0734    0.9582   -1.5952 H       1  UNL1        0.0660
     30 H           2.7651    1.7886   -1.2674 H       1  UNL1        0.1659
     31 H           5.5084    1.9243   -0.5220 H       1  UNL1        0.0653
     32 H           7.1836    0.5439    0.7362 H       1  UNL1        0.0830
     33 H           4.4687   -2.4540    1.5777 H       1  UNL1        0.0836
     34 H           1.6509   -2.9615    1.0079 H       1  UNL1        0.0836
     35 H          -5.5324   -1.0351   -2.2198 H       1  UNL1        0.0654
     36 H          -3.9024    3.5688    2.9876 H       1  UNL1        0.0831
     37 H          -1.5396    2.8207    3.0865 H       1  UNL1        0.0633
     38 H          -0.7593    1.0366    1.5213 H       1  UNL1        0.0626
@<TRIPOS>BOND
     1     1     2   ar
     2     2     3   ar
     3     3     4    1
     4     4     5   ar
     5     5     6   ar
     6     6     7   ar
     7     7     8   ar
     8     8     9   ar
     9     9    10   ar
    10    10    11   ar
    11    11    12   ar
    12    12    13   ar
    13    13    14   ar
    14    14    15   ar
    15    15    16   ar
    16     3    17   ar
    17    17    18   ar
    18    18    19   ar
    19    18    20   ar
    20    20    21   ar
    21    21    22   ar
    22    22    23   ar
    23    23    24   ar
    24    24    25   ar
    25    25    26   ar
    26    19     1   ar
    27    26    21   ar
    28    16     4   ar
    29    26    17   ar
    30    14     6   ar
    31    13     8   ar
    32     1    27    1
    33     2    28    1
    34     5    29    1
    35     7    30    1
    36     9    31    1
    37    10    32    1
    38    12    33    1
    39    15    34    1
    40    19    35    1
    41    23    36    1
    42    24    37    1
    43    25    38    1
