@<TRIPOS>MOLECULE
*****
 38 43 0 0 0
SMALL
GASTEIGER

@<TRIPOS>ATOM
      1 C          -2.9325   -3.0065    2.2339 C.ar    1  UNL1       -0.0601
      2 C          -1.7010   -2.6288    1.7254 C.ar    1  UNL1       -0.0519
      3 C          -1.5658   -1.4839    0.9135 C.ar    1  UNL1        0.0092
      4 C          -0.2385   -1.0911    0.4448 C.ar    1  UNL1        0.0736
      5 C           0.5224   -0.1578    1.1485 C.ar    1  UNL1       -0.0117
      6 C           1.7749    0.1304    0.6086 C.ar    1  UNL1        0.0510
      7 N           2.7565    0.9918    1.0373 N.ar    1  UNL1       -0.3540
      8 C           3.8371    0.9590    0.1881 C.ar    1  UNL1        0.0504
      9 C           5.0418    1.6578    0.2274 C.ar    1  UNL1       -0.0196
     10 C           5.9186    1.3715   -0.8078 C.ar    1  UNL1        0.0295
     11 N           5.6787    0.4924   -1.8052 N.ar    1  UNL1       -0.2625
     12 C           4.4994   -0.1767   -1.8207 C.ar    1  UNL1        0.0373
     13 C           3.5432    0.0408   -0.8204 C.ar    1  UNL1        0.0269
     14 C           2.2395   -0.4829   -0.5537 C.ar    1  UNL1        0.0270
     15 C           1.4123   -1.4174   -1.1871 C.ar    1  UNL1        0.0380
     16 N           0.1874   -1.7092   -0.6831 N.ar    1  UNL1       -0.2542
     17 C          -2.7195   -0.7047    0.5774 C.ar    1  UNL1        0.0076
     18 C          -3.9446   -1.1093    1.1275 C.ar    1  UNL1        0.0226
     19 C          -4.0637   -2.2485    1.9506 C.ar    1  UNL1       -0.0473
     20 S          -5.2322   -0.0608    0.6845 S.2     1  UNL1       -0.0687
     21 C          -4.2184    0.9109   -0.2597 C.ar    1  UNL1        0.1093
     22 N          -4.7271    1.9784   -0.9125 N.ar    1  UNL1       -0.2478
     23 C          -3.8302    2.6560   -1.6513 C.ar    1  UNL1        0.0289
     24 C          -2.4925    2.3363   -1.7689 C.ar    1  UNL1       -0.0429
     25 C          -2.0100    1.2314   -1.0709 C.ar    1  UNL1       -0.0500
     26 C          -2.8978    0.4753   -0.2661 C.ar    1  UNL1        0.0160
     27 H          -3.0162   -3.8935    2.8570 H       1  UNL1        0.0618
     28 H          -0.8218   -3.2288    1.9561 H       1  UNL1        0.0624
     29 H           0.1563    0.3138    2.0526 H       1  UNL1        0.0660
     30 H           2.6929    1.5707    1.8628 H       1  UNL1        0.1659
     31 H           5.2850    2.3721    1.0030 H       1  UNL1        0.0653
     32 H           6.8848    1.8673   -0.8627 H       1  UNL1        0.0830
     33 H           4.3538   -0.8716   -2.6399 H       1  UNL1        0.0836
     34 H           1.6950   -1.9438   -2.0918 H       1  UNL1        0.0836
     35 H          -5.0308   -2.5381    2.3541 H       1  UNL1        0.0629
     36 H          -4.2378    3.5121   -2.1840 H       1  UNL1        0.0830
     37 H          -1.8342    2.9276   -2.3959 H       1  UNL1        0.0633
     38 H          -0.9650    0.9574   -1.1717 H       1  UNL1        0.0625
@<TRIPOS>BOND
     1     1     2   ar
     2     2     3   ar
     3     3     4    1
     4     4     5   ar
     5     5     6   ar
     6     6     7   ar
     7     7     8   ar
     8     8     9   ar
     9     9    10   ar
    10    10    11   ar
    11    11    12   ar
    12    12    13   ar
    13    13    14   ar
    14    14    15   ar
    15    15    16   ar
    16     3    17   ar
    17    17    18   ar
    18    18    19   ar
    19    18    20   ar
    20    20    21   ar
    21    21    22   ar
    22    22    23   ar
    23    23    24   ar
    24    24    25   ar
    25    25    26   ar
    26    19     1   ar
    27    26    21   ar
    28    16     4   ar
    29    26    17   ar
    30    14     6   ar
    31    13     8   ar
    32     1    27    1
    33     2    28    1
    34     5    29    1
    35     7    30    1
    36     9    31    1
    37    10    32    1
    38    12    33    1
    39    15    34    1
    40    19    35    1
    41    23    36    1
    42    24    37    1
    43    25    38    1
