@<TRIPOS>MOLECULE
*****
 34 38 0 0 0
SMALL
GASTEIGER

@<TRIPOS>ATOM
      1 C          -0.8919    3.7601    0.3517 C.ar    1  UNL1       -0.0592
      2 C           0.1683    2.9002    0.0831 C.ar    1  UNL1       -0.0519
      3 C          -0.0381    1.5147   -0.0079 C.ar    1  UNL1        0.0080
      4 C           1.0855    0.6218   -0.2328 C.ar    1  UNL1        0.0482
      5 C           1.9089    0.4660   -1.3315 C.ar    1  UNL1       -0.0272
      6 C           2.8742   -0.5334   -1.0258 C.ar    1  UNL1        0.0183
      7 C           3.9334   -1.1211   -1.7271 C.ar    1  UNL1        0.0367
      8 N           4.6968   -2.0799   -1.1455 N.ar    1  UNL1       -0.2625
      9 C           4.4181   -2.4547    0.1229 C.ar    1  UNL1        0.0295
     10 C           3.3952   -1.9343    0.9018 C.ar    1  UNL1       -0.0196
     11 C           2.6258   -0.9536    0.2804 C.ar    1  UNL1        0.0498
     12 N           1.5521   -0.2297    0.7426 N.ar    1  UNL1       -0.3540
     13 C          -1.3443    0.9828    0.1491 C.ar    1  UNL1        0.0166
     14 C          -2.3780    1.8819    0.4327 C.ar    1  UNL1        0.0481
     15 C          -2.1833    3.2654    0.5400 C.ar    1  UNL1       -0.0377
     16 N          -3.5338    1.1506    0.5700 N.ar    1  UNL1       -0.3529
     17 C          -3.2993   -0.1844    0.3607 C.ar    1  UNL1        0.0658
     18 C          -4.1736   -1.2636    0.3901 C.ar    1  UNL1        0.0514
     19 N          -3.7028   -2.5015    0.1254 N.ar    1  UNL1       -0.2612
     20 C          -2.3956   -2.6513   -0.1748 C.ar    1  UNL1        0.0283
     21 C          -1.4712   -1.6180   -0.2180 C.ar    1  UNL1       -0.0338
     22 C          -1.9418   -0.3266    0.0754 C.ar    1  UNL1        0.0109
     23 H          -0.7109    4.8303    0.4230 H       1  UNL1        0.0618
     24 H           1.1684    3.3093   -0.0438 H       1  UNL1        0.0624
     25 H           1.8166    1.0070   -2.2647 H       1  UNL1        0.0645
     26 H           4.1913   -0.8496   -2.7441 H       1  UNL1        0.0836
     27 H           5.0730   -3.2257    0.5215 H       1  UNL1        0.0830
     28 H           3.2165   -2.2700    1.9146 H       1  UNL1        0.0653
     29 H           1.1468   -0.3173    1.6645 H       1  UNL1        0.1659
     30 H          -3.0068    3.9393    0.7560 H       1  UNL1        0.0638
     31 H          -4.4377    1.5482    0.7807 H       1  UNL1        0.1659
     32 H          -5.2302   -1.1759    0.6111 H       1  UNL1        0.0851
     33 H          -2.0906   -3.6710   -0.3954 H       1  UNL1        0.0830
     34 H          -0.4410   -1.8161   -0.4857 H       1  UNL1        0.0639
@<TRIPOS>BOND
     1     1     2   ar
     2     2     3   ar
     3     3     4    1
     4     4     5   ar
     5     5     6   ar
     6     6     7   ar
     7     7     8   ar
     8     8     9   ar
     9     9    10   ar
    10    10    11   ar
    11    11    12   ar
    12     3    13   ar
    13    13    14   ar
    14    14    15   ar
    15    14    16   ar
    16    16    17   ar
    17    17    18   ar
    18    18    19   ar
    19    19    20   ar
    20    20    21   ar
    21    21    22   ar
    22    15     1   ar
    23    22    17   ar
    24    12     4   ar
    25    22    13   ar
    26    11     6   ar
    27     1    23    1
    28     2    24    1
    29     5    25    1
    30     7    26    1
    31     9    27    1
    32    10    28    1
    33    12    29    1
    34    15    30    1
    35    16    31    1
    36    18    32    1
    37    20    33    1
    38    21    34    1
