@<TRIPOS>MOLECULE
*****
 33 37 0 0 0
SMALL
GASTEIGER

@<TRIPOS>ATOM
      1 C           1.5287    3.6458    0.6456 C.ar    1  UNL1       -0.0576
      2 C           0.3478    2.9524    0.3761 C.ar    1  UNL1       -0.0518
      3 C           0.3598    1.5641    0.1590 C.ar    1  UNL1        0.0097
      4 C          -0.8723    0.8366   -0.0832 C.ar    1  UNL1        0.0482
      5 C          -1.7293    0.8543   -1.1669 C.ar    1  UNL1       -0.0272
      6 C          -2.8022   -0.0410   -0.9002 C.ar    1  UNL1        0.0183
      7 C          -3.9381   -0.4496   -1.6089 C.ar    1  UNL1        0.0367
      8 N          -4.8000   -1.3476   -1.0696 N.ar    1  UNL1       -0.2625
      9 C          -4.5454   -1.8363    0.1645 C.ar    1  UNL1        0.0295
     10 C          -3.4522   -1.4952    0.9472 C.ar    1  UNL1       -0.0196
     11 C          -2.5812   -0.5748    0.3689 C.ar    1  UNL1        0.0498
     12 N          -1.4188   -0.0175    0.8474 N.ar    1  UNL1       -0.3540
     13 C           1.5887    0.8669    0.1918 C.ar    1  UNL1        0.0386
     14 C           2.7368    1.6036    0.4739 C.ar    1  UNL1        0.1389
     15 C           2.7545    2.9787    0.7072 C.ar    1  UNL1       -0.0186
     16 O           3.8346    0.8040    0.4923 O.2     1  UNL1       -0.4368
     17 C           3.4198   -0.4573    0.2004 C.ar    1  UNL1        0.2284
     18 N           4.2670   -1.5010    0.1298 N.ar    1  UNL1       -0.2205
     19 C           3.6574   -2.6606   -0.1939 C.ar    1  UNL1        0.0314
     20 C           2.3006   -2.8208   -0.4387 C.ar    1  UNL1       -0.0428
     21 C           1.4598   -1.7112   -0.3480 C.ar    1  UNL1       -0.0474
     22 C           2.0403   -0.4757   -0.0070 C.ar    1  UNL1        0.0482
     23 H           1.4952    4.7203    0.8147 H       1  UNL1        0.0619
     24 H          -0.5940    3.4976    0.3445 H       1  UNL1        0.0624
     25 H          -1.5911    1.4408   -2.0665 H       1  UNL1        0.0645
     26 H          -4.1813   -0.0816   -2.5989 H       1  UNL1        0.0836
     27 H          -5.2818   -2.5475    0.5307 H       1  UNL1        0.0830
     28 H          -3.2973   -1.9161    1.9316 H       1  UNL1        0.0653
     29 H          -1.0149   -0.2130    1.7532 H       1  UNL1        0.1659
     30 H           3.6814    3.4995    0.9189 H       1  UNL1        0.0654
     31 H           4.3271   -3.5157   -0.2613 H       1  UNL1        0.0831
     32 H           1.9022   -3.7953   -0.7030 H       1  UNL1        0.0633
     33 H           0.3984   -1.8068   -0.5519 H       1  UNL1        0.0626
@<TRIPOS>BOND
     1     1     2   ar
     2     2     3   ar
     3     3     4    1
     4     4     5   ar
     5     5     6   ar
     6     6     7   ar
     7     7     8   ar
     8     8     9   ar
     9     9    10   ar
    10    10    11   ar
    11    11    12   ar
    12     3    13   ar
    13    13    14   ar
    14    14    15   ar
    15    14    16   ar
    16    16    17   ar
    17    17    18   ar
    18    18    19   ar
    19    19    20   ar
    20    20    21   ar
    21    21    22   ar
    22    15     1   ar
    23    22    17   ar
    24    12     4   ar
    25    22    13   ar
    26    11     6   ar
    27     1    23    1
    28     2    24    1
    29     5    25    1
    30     7    26    1
    31     9    27    1
    32    10    28    1
    33    12    29    1
    34    15    30    1
    35    19    31    1
    36    20    32    1
    37    21    33    1
