@<TRIPOS>MOLECULE
*****
 33 37 0 0 0
SMALL
GASTEIGER

@<TRIPOS>ATOM
      1 C           1.1120   -3.8455    0.8521 C.ar    1  UNL1       -0.0601
      2 C           0.0542   -2.9922    0.5881 C.ar    1  UNL1       -0.0520
      3 C           0.2788   -1.6223    0.3775 C.ar    1  UNL1        0.0072
      4 C          -0.8631   -0.7526    0.1504 C.ar    1  UNL1        0.0481
      5 C          -1.6427   -0.5665   -0.9752 C.ar    1  UNL1       -0.0272
      6 C          -2.6550    0.3827   -0.6615 C.ar    1  UNL1        0.0183
      7 C          -3.7029    0.9718   -1.3786 C.ar    1  UNL1        0.0367
      8 N          -4.5230    1.8735   -0.7832 N.ar    1  UNL1       -0.2625
      9 C          -4.3139    2.1883    0.5145 C.ar    1  UNL1        0.0295
     10 C          -3.3086    1.6603    1.3110 C.ar    1  UNL1       -0.0196
     11 C          -2.4785    0.7402    0.6749 C.ar    1  UNL1        0.0498
     12 N          -1.4012    0.0281    1.1479 N.ar    1  UNL1       -0.3540
     13 C           1.5985   -1.0756    0.4087 C.ar    1  UNL1        0.0075
     14 C           2.6389   -1.9725    0.6952 C.ar    1  UNL1        0.0226
     15 C           2.4106   -3.3478    0.9162 C.ar    1  UNL1       -0.0473
     16 S           4.1700   -1.1949    0.7455 S.2     1  UNL1       -0.0687
     17 C           3.5029    0.3118    0.3604 C.ar    1  UNL1        0.1093
     18 N           4.3058    1.3919    0.2474 N.ar    1  UNL1       -0.2478
     19 C           3.6664    2.5274   -0.0852 C.ar    1  UNL1        0.0289
     20 C           2.3085    2.6394   -0.3047 C.ar    1  UNL1       -0.0429
     21 C           1.5179    1.5001   -0.1711 C.ar    1  UNL1       -0.0500
     22 C           2.1236    0.2698    0.1857 C.ar    1  UNL1        0.0160
     23 H           0.9297   -4.9049    1.0163 H       1  UNL1        0.0618
     24 H          -0.9581   -3.3903    0.5520 H       1  UNL1        0.0624
     25 H          -1.4927   -1.0551   -1.9297 H       1  UNL1        0.0645
     26 H          -3.9075    0.7464   -2.4188 H       1  UNL1        0.0836
     27 H          -5.0125    2.9148    0.9225 H       1  UNL1        0.0830
     28 H          -3.1869    1.9466    2.3471 H       1  UNL1        0.0653
     29 H          -1.0437    0.0788    2.0921 H       1  UNL1        0.1659
     30 H           3.2413   -4.0159    1.1313 H       1  UNL1        0.0629
     31 H           4.3110    3.3981   -0.1817 H       1  UNL1        0.0830
     32 H           1.8681    3.5917   -0.5802 H       1  UNL1        0.0633
     33 H           0.4521    1.5746   -0.3586 H       1  UNL1        0.0625
@<TRIPOS>BOND
     1     1     2   ar
     2     2     3   ar
     3     3     4    1
     4     4     5   ar
     5     5     6   ar
     6     6     7   ar
     7     7     8   ar
     8     8     9   ar
     9     9    10   ar
    10    10    11   ar
    11    11    12   ar
    12     3    13   ar
    13    13    14   ar
    14    14    15   ar
    15    14    16   ar
    16    16    17   ar
    17    17    18   ar
    18    18    19   ar
    19    19    20   ar
    20    20    21   ar
    21    21    22   ar
    22    15     1   ar
    23    22    17   ar
    24    12     4   ar
    25    22    13   ar
    26    11     6   ar
    27     1    23    1
    28     2    24    1
    29     5    25    1
    30     7    26    1
    31     9    27    1
    32    10    28    1
    33    12    29    1
    34    15    30    1
    35    19    31    1
    36    20    32    1
    37    21    33    1
