@<TRIPOS>MOLECULE
*****
 41 47 0 0 0
SMALL
GASTEIGER

@<TRIPOS>ATOM
      1 SI         -3.1193   -3.6402   -1.0704 Si      1  UNL1        0.0000
      2 C          -1.3731   -3.0519   -0.8847 C.2     1  UNL1        0.0000
      3 C          -1.3147   -1.7437   -0.5582 C.ar    1  UNL1        0.0000
      4 C          -0.0734   -1.0156   -0.3494 C.ar    1  UNL1        0.0000
      5 C           1.2959   -1.5501   -0.4514 C.2     1  UNL1        0.0000
      6 C           2.3147   -0.6927   -0.2158 C.2     1  UNL1        0.0000
      7 SI          1.5916    0.9824    0.1838 Si      1  UNL1        0.0000
      8 C          -0.1435    0.2998   -0.0244 C.ar    1  UNL1        0.0000
      9 C          -1.4118    1.0564    0.1353 C.ar    1  UNL1        0.0000
     10 C          -1.3941    2.4117    0.4725 C.ar    1  UNL1        0.0000
     11 C          -2.5733    3.1341    0.6259 C.ar    1  UNL1        0.0000
     12 C          -3.8272    2.5184    0.4453 C.ar    1  UNL1        0.0000
     13 C          -5.1312    3.1116    0.5640 C.ar    1  UNL1        0.0000
     14 C          -6.1432    2.2231    0.3210 C.ar    1  UNL1        0.0000
     15 S          -5.5415    0.6846   -0.0480 S.2     1  UNL1        0.0000
     16 C          -3.8733    1.1528    0.1049 C.ar    1  UNL1        0.0000
     17 C          -2.6696    0.3920   -0.0577 C.ar    1  UNL1        0.0000
     18 C          -2.6383   -1.0646   -0.4191 C.ar    1  UNL1        0.0000
     19 C          -3.6697   -1.9065   -0.6519 C.2     1  UNL1        0.0000
     20 C           3.7068   -1.0078   -0.2629 C.ar    1  UNL1        0.0000
     21 S           4.2375   -2.6355   -0.6572 S.2     1  UNL1        0.0000
     22 C           5.9020   -2.2739   -0.5292 C.ar    1  UNL1        0.0000
     23 C           6.0756   -0.9662   -0.1989 C.ar    1  UNL1        0.0000
     24 S           7.6002   -0.0415    0.0664 S.2     1  UNL1        0.0000
     25 C           6.5395    1.3137    0.3807 C.ar    1  UNL1        0.0000
     26 C           5.1659    1.0607    0.2866 C.ar    1  UNL1        0.0000
     27 C           4.8570   -0.2926   -0.0583 C.ar    1  UNL1        0.0000
     28 H          -3.5056   -4.6256   -0.0319 H       1  UNL1        0.0000
     29 H          -3.4506   -4.0208   -2.4647 H       1  UNL1        0.0000
     30 H          -0.5508   -3.7315   -1.0352 H       1  UNL1        0.0000
     31 H           1.4272   -2.5935   -0.7074 H       1  UNL1        0.0000
     32 H           1.8679    1.4212    1.5767 H       1  UNL1        0.0000
     33 H           1.9217    2.0184   -0.8295 H       1  UNL1        0.0000
     34 H          -0.4683    2.9571    0.6285 H       1  UNL1        0.0000
     35 H          -2.5226    4.1885    0.8891 H       1  UNL1        0.0000
     36 H          -5.3049    4.1500    0.8182 H       1  UNL1        0.0000
     37 H          -7.2082    2.4087    0.3437 H       1  UNL1        0.0000
     38 H          -4.7265   -1.7280   -0.6316 H       1  UNL1        0.0000
     39 H           6.6750   -3.0113   -0.6958 H       1  UNL1        0.0000
     40 H           7.0053    2.2584    0.6271 H       1  UNL1        0.0000
     41 H           4.4506    1.8501    0.4676 H       1  UNL1        0.0000
@<TRIPOS>BOND
     1     1     2    1
     2     2     3    2
     3     3     4   ar
     4     4     5    1
     5     5     6    2
     6     6     7    1
     7     7     8    1
     8     8     9   ar
     9     9    10   ar
    10    10    11   ar
    11    11    12   ar
    12    12    13   ar
    13    13    14   ar
    14    14    15   ar
    15    15    16   ar
    16    16    17   ar
    17    17    18   ar
    18    18    19    2
    19     6    20    1
    20    20    21   ar
    21    21    22   ar
    22    22    23   ar
    23    23    24   ar
    24    24    25   ar
    25    25    26   ar
    26    26    27   ar
    27    19     1    1
    28    27    20   ar
    29    18     3   ar
    30    27    23   ar
    31     8     4   ar
    32    17     9   ar
    33    16    12   ar
    34     1    28    1
    35     1    29    1
    36     2    30    1
    37     5    31    1
    38     7    32    1
    39     7    33    1
    40    10    34    1
    41    11    35    1
    42    13    36    1
    43    14    37    1
    44    19    38    1
    45    22    39    1
    46    25    40    1
    47    26    41    1
