@<TRIPOS>MOLECULE
*****
 39 43 0 0 0
SMALL
GASTEIGER

@<TRIPOS>ATOM
      1 C          -2.5621    3.0334    2.3373 C.ar    1  UNL1       -0.0592
      2 C          -1.3266    2.5189    1.9555 C.ar    1  UNL1       -0.0533
      3 C          -1.2309    1.3861    1.1235 C.ar    1  UNL1       -0.0081
      4 C           0.0745    0.8613    0.7287 C.ar    1  UNL1       -0.0172
      5 C           0.7174    1.3307   -0.4227 C.ar    1  UNL1       -0.0534
      6 C           1.9709    0.8312   -0.8010 C.ar    1  UNL1       -0.0519
      7 C           2.6260   -0.1558   -0.0429 C.ar    1  UNL1        0.0019
      8 C           3.9443   -0.7018   -0.4255 C.ar    1  UNL1        0.0890
      9 C           4.4044   -0.7678   -1.7419 C.ar    1  UNL1        0.0535
     10 N           5.6180   -1.2678   -2.0932 N.ar    1  UNL1       -0.2596
     11 C           6.3713   -1.7145   -1.0671 C.ar    1  UNL1        0.0457
     12 C           5.9329   -1.6677    0.2429 C.ar    1  UNL1        0.0464
     13 N           4.7229   -1.1692    0.5885 N.ar    1  UNL1       -0.2520
     14 C           1.9737   -0.6068    1.1195 C.ar    1  UNL1       -0.0519
     15 C           0.7213   -0.1096    1.5000 C.ar    1  UNL1       -0.0534
     16 C          -2.4272    0.7642    0.6725 C.ar    1  UNL1        0.0152
     17 C          -3.6480    1.3128    1.0777 C.ar    1  UNL1        0.0481
     18 C          -3.7466    2.4389    1.9040 C.ar    1  UNL1       -0.0377
     19 N          -4.6471    0.5501    0.5207 N.ar    1  UNL1       -0.3529
     20 C          -4.1260   -0.4726   -0.2301 C.ar    1  UNL1        0.0658
     21 C          -4.7654   -1.4678   -0.9585 C.ar    1  UNL1        0.0514
     22 N          -4.0226   -2.3782   -1.6252 N.ar    1  UNL1       -0.2612
     23 C          -2.6768   -2.2932   -1.5616 C.ar    1  UNL1        0.0283
     24 C          -1.9777   -1.3261   -0.8547 C.ar    1  UNL1       -0.0338
     25 C          -2.7376   -0.3718   -0.1577 C.ar    1  UNL1        0.0109
     26 H          -2.6038    3.9091    2.9810 H       1  UNL1        0.0618
     27 H          -0.4179    3.0034    2.3088 H       1  UNL1        0.0624
     28 H           0.2421    2.0952   -1.0350 H       1  UNL1        0.0624
     29 H           2.4316    1.2488   -1.6935 H       1  UNL1        0.0624
     30 H           3.8012   -0.4305   -2.5775 H       1  UNL1        0.0851
     31 H           7.3437   -2.1164   -1.3272 H       1  UNL1        0.0845
     32 H           6.5462   -2.0319    1.0591 H       1  UNL1        0.0845
     33 H           2.4451   -1.3631    1.7465 H       1  UNL1        0.0624
     34 H           0.2519   -0.4898    2.4054 H       1  UNL1        0.0624
     35 H          -4.7093    2.8418    2.2028 H       1  UNL1        0.0638
     36 H          -5.6335    0.7222    0.6497 H       1  UNL1        0.1659
     37 H          -5.8417   -1.5646   -1.0285 H       1  UNL1        0.0851
     38 H          -2.1435   -3.0587   -2.1192 H       1  UNL1        0.0830
     39 H          -0.8951   -1.3226   -0.8494 H       1  UNL1        0.0639
@<TRIPOS>BOND
     1     1     2   ar
     2     2     3   ar
     3     3     4    1
     4     4     5   ar
     5     5     6   ar
     6     6     7   ar
     7     7     8    1
     8     8     9   ar
     9     9    10   ar
    10    10    11   ar
    11    11    12   ar
    12    12    13   ar
    13     7    14   ar
    14    14    15   ar
    15     3    16   ar
    16    16    17   ar
    17    17    18   ar
    18    17    19   ar
    19    19    20   ar
    20    20    21   ar
    21    21    22   ar
    22    22    23   ar
    23    23    24   ar
    24    24    25   ar
    25    18     1   ar
    26    25    20   ar
    27    15     4   ar
    28    25    16   ar
    29    13     8   ar
    30     1    26    1
    31     2    27    1
    32     5    28    1
    33     6    29    1
    34     9    30    1
    35    11    31    1
    36    12    32    1
    37    14    33    1
    38    15    34    1
    39    18    35    1
    40    19    36    1
    41    21    37    1
    42    23    38    1
    43    24    39    1
