@<TRIPOS>MOLECULE
*****
 38 42 0 0 0
SMALL
GASTEIGER

@<TRIPOS>ATOM
      1 C          -2.9240    3.6330   -0.6104 C.ar    1  UNL1       -0.0577
      2 C          -1.6494    3.0845   -0.4547 C.ar    1  UNL1       -0.0532
      3 C          -1.4587    1.6957   -0.2990 C.ar    1  UNL1       -0.0065
      4 C          -0.1243    1.1261   -0.1365 C.ar    1  UNL1       -0.0171
      5 C           0.4018    0.8820    1.1364 C.ar    1  UNL1       -0.0534
      6 C           1.6766    0.3235    1.2872 C.ar    1  UNL1       -0.0519
      7 C           2.4758   -0.0021    0.1763 C.ar    1  UNL1        0.0019
      8 C           3.8173   -0.5891    0.3623 C.ar    1  UNL1        0.0890
      9 C           4.8762   -0.3980   -0.5268 C.ar    1  UNL1        0.0535
     10 N           6.1092   -0.9425   -0.3583 N.ar    1  UNL1       -0.2596
     11 C           6.2560   -1.6938    0.7527 C.ar    1  UNL1        0.0457
     12 C           5.2237   -1.8891    1.6513 C.ar    1  UNL1        0.0464
     13 N           3.9957   -1.3458    1.4795 N.ar    1  UNL1       -0.2520
     14 C           1.9347    0.2471   -1.0974 C.ar    1  UNL1       -0.0519
     15 C           0.6583    0.8044   -1.2516 C.ar    1  UNL1       -0.0534
     16 C          -2.5995    0.8560   -0.3053 C.ar    1  UNL1        0.0372
     17 C          -3.8490    1.4497   -0.4638 C.ar    1  UNL1        0.1388
     18 C          -4.0578    2.8193   -0.6178 C.ar    1  UNL1       -0.0186
     19 O          -4.8361    0.5164   -0.4489 O.2     1  UNL1       -0.4368
     20 C          -4.2428   -0.6956   -0.2820 C.ar    1  UNL1        0.2284
     21 N          -4.9424   -1.8445   -0.2239 N.ar    1  UNL1       -0.2205
     22 C          -4.1625   -2.9332   -0.0549 C.ar    1  UNL1        0.0314
     23 C          -2.7784   -2.9298    0.0528 C.ar    1  UNL1       -0.0428
     24 C          -2.0966   -1.7147   -0.0142 C.ar    1  UNL1       -0.0474
     25 C          -2.8594   -0.5457   -0.1882 C.ar    1  UNL1        0.0482
     26 H          -3.0363    4.7090   -0.7268 H       1  UNL1        0.0619
     27 H          -0.7855    3.7480   -0.4515 H       1  UNL1        0.0624
     28 H          -0.1810    1.1184    2.0249 H       1  UNL1        0.0624
     29 H           2.0504    0.1421    2.2946 H       1  UNL1        0.0624
     30 H           4.7759    0.2202   -1.4122 H       1  UNL1        0.0851
     31 H           7.2334   -2.1368    0.9047 H       1  UNL1        0.0845
     32 H           5.3546   -2.4929    2.5420 H       1  UNL1        0.0845
     33 H           2.4883   -0.0077   -1.9987 H       1  UNL1        0.0624
     34 H           0.2717    0.9756   -2.2549 H       1  UNL1        0.0624
     35 H          -5.0558    3.2248   -0.7371 H       1  UNL1        0.0654
     36 H          -4.7092   -3.8726   -0.0044 H       1  UNL1        0.0831
     37 H          -2.2359   -3.8599    0.1877 H       1  UNL1        0.0633
     38 H          -1.0149   -1.6823    0.0671 H       1  UNL1        0.0626
@<TRIPOS>BOND
     1     1     2   ar
     2     2     3   ar
     3     3     4    1
     4     4     5   ar
     5     5     6   ar
     6     6     7   ar
     7     7     8    1
     8     8     9   ar
     9     9    10   ar
    10    10    11   ar
    11    11    12   ar
    12    12    13   ar
    13     7    14   ar
    14    14    15   ar
    15     3    16   ar
    16    16    17   ar
    17    17    18   ar
    18    17    19   ar
    19    19    20   ar
    20    20    21   ar
    21    21    22   ar
    22    22    23   ar
    23    23    24   ar
    24    24    25   ar
    25    18     1   ar
    26    25    20   ar
    27    15     4   ar
    28    25    16   ar
    29    13     8   ar
    30     1    26    1
    31     2    27    1
    32     5    28    1
    33     6    29    1
    34     9    30    1
    35    11    31    1
    36    12    32    1
    37    14    33    1
    38    15    34    1
    39    18    35    1
    40    22    36    1
    41    23    37    1
    42    24    38    1
