@<TRIPOS>MOLECULE
*****
 38 42 0 0 0
SMALL
GASTEIGER

@<TRIPOS>ATOM
      1 C          -3.2749    3.3743   -0.5587 C.ar    1  UNL1       -0.0601
      2 C          -1.9825    2.8777   -0.5793 C.ar    1  UNL1       -0.0534
      3 C          -1.7051    1.5476   -0.2034 C.ar    1  UNL1       -0.0090
      4 C          -0.3219    1.0723   -0.2382 C.ar    1  UNL1       -0.0172
      5 C           0.5115    1.2101    0.8787 C.ar    1  UNL1       -0.0534
      6 C           1.8379    0.7597    0.8453 C.ar    1  UNL1       -0.0519
      7 C           2.3800    0.1645   -0.3077 C.ar    1  UNL1        0.0019
      8 C           3.7738   -0.3181   -0.3647 C.ar    1  UNL1        0.0890
      9 C           4.8216    0.2542    0.3582 C.ar    1  UNL1        0.0535
     10 N           6.1032   -0.1934    0.3097 N.ar    1  UNL1       -0.2596
     11 C           6.3105   -1.2481   -0.5058 C.ar    1  UNL1        0.0457
     12 C           5.2893   -1.8249   -1.2377 C.ar    1  UNL1        0.0464
     13 N           4.0129   -1.3769   -1.1859 N.ar    1  UNL1       -0.2520
     14 C           1.5313    0.0340   -1.4222 C.ar    1  UNL1       -0.0519
     15 C           0.2062    0.4848   -1.3931 C.ar    1  UNL1       -0.0534
     16 C          -2.7703    0.6818    0.2084 C.ar    1  UNL1        0.0061
     17 C          -4.0640    1.2242    0.2167 C.ar    1  UNL1        0.0225
     18 C          -4.3276    2.5572   -0.1614 C.ar    1  UNL1       -0.0473
     19 S          -5.2430    0.0855    0.7322 S.2     1  UNL1       -0.0687
     20 C          -4.0862   -1.1298    0.9490 C.ar    1  UNL1        0.1093
     21 N          -4.4691   -2.3515    1.3796 N.ar    1  UNL1       -0.2478
     22 C          -3.4629   -3.2343    1.5112 C.ar    1  UNL1        0.0289
     23 C          -2.1346   -2.9709    1.2449 C.ar    1  UNL1       -0.0429
     24 C          -1.7857   -1.6962    0.8042 C.ar    1  UNL1       -0.0500
     25 C          -2.7947   -0.7146    0.6422 C.ar    1  UNL1        0.0159
     26 H          -3.4687    4.4029   -0.8527 H       1  UNL1        0.0618
     27 H          -1.1687    3.5300   -0.8927 H       1  UNL1        0.0624
     28 H           0.1265    1.6618    1.7915 H       1  UNL1        0.0624
     29 H           2.4321    0.8669    1.7504 H       1  UNL1        0.0624
     30 H           4.6707    1.1146    1.0010 H       1  UNL1        0.0851
     31 H           7.3273   -1.6196   -0.5580 H       1  UNL1        0.0845
     32 H           5.4688   -2.6706   -1.8916 H       1  UNL1        0.0845
     33 H           1.9054   -0.4259   -2.3365 H       1  UNL1        0.0624
     34 H          -0.4141    0.3651   -2.2794 H       1  UNL1        0.0624
     35 H          -5.3434    2.9443   -0.1436 H       1  UNL1        0.0629
     36 H          -3.7677   -4.2195    1.8564 H       1  UNL1        0.0830
     37 H          -1.3798   -3.7389    1.3746 H       1  UNL1        0.0633
     38 H          -0.7443   -1.4803    0.5906 H       1  UNL1        0.0625
@<TRIPOS>BOND
     1     1     2   ar
     2     2     3   ar
     3     3     4    1
     4     4     5   ar
     5     5     6   ar
     6     6     7   ar
     7     7     8    1
     8     8     9   ar
     9     9    10   ar
    10    10    11   ar
    11    11    12   ar
    12    12    13   ar
    13     7    14   ar
    14    14    15   ar
    15     3    16   ar
    16    16    17   ar
    17    17    18   ar
    18    17    19   ar
    19    19    20   ar
    20    20    21   ar
    21    21    22   ar
    22    22    23   ar
    23    23    24   ar
    24    24    25   ar
    25    18     1   ar
    26    25    20   ar
    27    15     4   ar
    28    25    16   ar
    29    13     8   ar
    30     1    26    1
    31     2    27    1
    32     5    28    1
    33     6    29    1
    34     9    30    1
    35    11    31    1
    36    12    32    1
    37    14    33    1
    38    15    34    1
    39    18    35    1
    40    22    36    1
    41    23    37    1
    42    24    38    1
