@<TRIPOS>MOLECULE
*****
 33 37 0 0 0
SMALL
GASTEIGER

@<TRIPOS>ATOM
      1 C          -1.4090    1.2060   -3.2094 C.ar    1  UNL1       -0.0592
      2 C          -0.1938    0.8390   -2.6391 C.ar    1  UNL1       -0.0533
      3 C          -0.1167    0.3931   -1.3049 C.ar    1  UNL1       -0.0081
      4 C           1.1676    0.0036   -0.7238 C.ar    1  UNL1       -0.0150
      5 C           1.6050   -1.3324   -0.8012 C.ar    1  UNL1       -0.0519
      6 C           2.8295   -1.7497   -0.2616 C.ar    1  UNL1       -0.0342
      7 C           3.5966   -0.7639    0.3567 C.ar    1  UNL1        0.0858
      8 N           4.8116   -0.7742    0.9819 N.ar    1  UNL1       -0.2571
      9 N           5.1536    0.4426    1.4351 N.ar    1  UNL1       -0.0673
     10 N           4.1721    1.2768    1.1135 N.ar    1  UNL1       -0.1297
     11 C           3.2072    0.5645    0.4525 C.ar    1  UNL1        0.1130
     12 C           1.9803    0.9653   -0.0931 C.ar    1  UNL1       -0.0247
     13 C          -1.3099    0.3240   -0.5350 C.ar    1  UNL1        0.0152
     14 C          -2.5104    0.6991   -1.1463 C.ar    1  UNL1        0.0481
     15 C          -2.5909    1.1412   -2.4724 C.ar    1  UNL1       -0.0377
     16 N          -3.5114    0.5458   -0.2165 N.ar    1  UNL1       -0.3529
     17 C          -3.0109    0.0877    0.9754 C.ar    1  UNL1        0.0658
     18 C          -3.6596   -0.2025    2.1690 C.ar    1  UNL1        0.0514
     19 N          -2.9377   -0.6437    3.2220 N.ar    1  UNL1       -0.2612
     20 C          -1.6025   -0.7852    3.0829 C.ar    1  UNL1        0.0283
     21 C          -0.8951   -0.5151    1.9207 C.ar    1  UNL1       -0.0338
     22 C          -1.6339   -0.0595    0.8158 C.ar    1  UNL1        0.0109
     23 H          -1.4372    1.5472   -4.2418 H       1  UNL1        0.0618
     24 H           0.7126    0.8991   -3.2391 H       1  UNL1        0.0624
     25 H           0.9720   -2.0718   -1.2926 H       1  UNL1        0.0624
     26 H           3.1525   -2.7828   -0.3272 H       1  UNL1        0.0639
     27 H           5.4467   -1.5473    1.1349 H       1  UNL1        0.1907
     28 H           1.6696    2.0027   -0.0193 H       1  UNL1        0.0646
     29 H          -3.5379    1.4277   -2.9193 H       1  UNL1        0.0638
     30 H          -4.4854    0.7471   -0.3902 H       1  UNL1        0.1659
     31 H          -4.7274   -0.0955    2.3146 H       1  UNL1        0.0851
     32 H          -1.0852   -1.1377    3.9713 H       1  UNL1        0.0830
     33 H           0.1782   -0.6512    1.8864 H       1  UNL1        0.0639
@<TRIPOS>BOND
     1     1     2   ar
     2     2     3   ar
     3     3     4    1
     4     4     5   ar
     5     5     6   ar
     6     6     7   ar
     7     7     8   ar
     8     8     9   ar
     9     9    10   ar
    10    10    11   ar
    11    11    12   ar
    12     3    13   ar
    13    13    14   ar
    14    14    15   ar
    15    14    16   ar
    16    16    17   ar
    17    17    18   ar
    18    18    19   ar
    19    19    20   ar
    20    20    21   ar
    21    21    22   ar
    22    15     1   ar
    23    22    17   ar
    24    12     4   ar
    25    22    13   ar
    26    11     7   ar
    27     1    23    1
    28     2    24    1
    29     5    25    1
    30     6    26    1
    31     8    27    1
    32    12    28    1
    33    15    29    1
    34    16    30    1
    35    18    31    1
    36    20    32    1
    37    21    33    1
