@<TRIPOS>MOLECULE
*****
 32 36 0 0 0
SMALL
GASTEIGER

@<TRIPOS>ATOM
      1 C          -1.0879    3.4187   -1.3359 C.ar    1  UNL1       -0.0577
      2 C           0.0489    2.6659   -1.0353 C.ar    1  UNL1       -0.0532
      3 C          -0.0487    1.3624   -0.5047 C.ar    1  UNL1       -0.0064
      4 C           1.1456    0.5805   -0.1909 C.ar    1  UNL1       -0.0150
      5 C           1.8129    0.7662    1.0345 C.ar    1  UNL1       -0.0519
      6 C           2.9604    0.0378    1.3780 C.ar    1  UNL1       -0.0342
      7 C           3.4083   -0.8852    0.4347 C.ar    1  UNL1        0.0858
      8 N           4.4590   -1.7583    0.4004 N.ar    1  UNL1       -0.2571
      9 N           4.4865   -2.4656   -0.7407 N.ar    1  UNL1       -0.0673
     10 N           3.4598   -2.0657   -1.4813 N.ar    1  UNL1       -0.1297
     11 C           2.7844   -1.0988   -0.7860 C.ar    1  UNL1        0.1130
     12 C           1.6400   -0.3600   -1.1152 C.ar    1  UNL1       -0.0247
     13 C          -1.3395    0.8244   -0.2773 C.ar    1  UNL1        0.0372
     14 C          -2.4424    1.6144   -0.5922 C.ar    1  UNL1        0.1388
     15 C          -2.3661    2.9029   -1.1182 C.ar    1  UNL1       -0.0186
     16 O          -3.6020    0.9624   -0.3177 O.2     1  UNL1       -0.4368
     17 C          -3.2704   -0.2588    0.1793 C.ar    1  UNL1        0.2284
     18 N          -4.1931   -1.1638    0.5559 N.ar    1  UNL1       -0.2205
     19 C          -3.6541   -2.3110    1.0195 C.ar    1  UNL1        0.0314
     20 C          -2.2971   -2.5840    1.1240 C.ar    1  UNL1       -0.0428
     21 C          -1.3778   -1.6139    0.7242 C.ar    1  UNL1       -0.0474
     22 C          -1.8834   -0.3985    0.2281 C.ar    1  UNL1        0.0482
     23 H          -0.9774    4.4202   -1.7466 H       1  UNL1        0.0619
     24 H           1.0316    3.0981   -1.2204 H       1  UNL1        0.0624
     25 H           1.4282    1.4968    1.7468 H       1  UNL1        0.0624
     26 H           3.4636    0.1911    2.3264 H       1  UNL1        0.0639
     27 H           5.1763   -1.9256    1.0948 H       1  UNL1        0.1907
     28 H           1.1500   -0.5241   -2.0699 H       1  UNL1        0.0646
     29 H          -3.2613    3.4703   -1.3450 H       1  UNL1        0.0654
     30 H          -4.3842   -3.0573    1.3261 H       1  UNL1        0.0831
     31 H          -1.9582   -3.5401    1.5099 H       1  UNL1        0.0633
     32 H          -0.3117   -1.8015    0.7950 H       1  UNL1        0.0626
@<TRIPOS>BOND
     1     1     2   ar
     2     2     3   ar
     3     3     4    1
     4     4     5   ar
     5     5     6   ar
     6     6     7   ar
     7     7     8   ar
     8     8     9   ar
     9     9    10   ar
    10    10    11   ar
    11    11    12   ar
    12     3    13   ar
    13    13    14   ar
    14    14    15   ar
    15    14    16   ar
    16    16    17   ar
    17    17    18   ar
    18    18    19   ar
    19    19    20   ar
    20    20    21   ar
    21    21    22   ar
    22    15     1   ar
    23    22    17   ar
    24    12     4   ar
    25    22    13   ar
    26    11     7   ar
    27     1    23    1
    28     2    24    1
    29     5    25    1
    30     6    26    1
    31     8    27    1
    32    12    28    1
    33    15    29    1
    34    19    30    1
    35    20    31    1
    36    21    32    1
