@<TRIPOS>MOLECULE
*****
 32 36 0 0 0
SMALL
GASTEIGER

@<TRIPOS>ATOM
      1 C           0.6044    3.8233   -0.3031 C.ar    1  UNL1       -0.0601
      2 C          -0.3690    2.8396   -0.3471 C.ar    1  UNL1       -0.0534
      3 C          -0.0473    1.4837   -0.1336 C.ar    1  UNL1       -0.0090
      4 C          -1.1159    0.4835   -0.1825 C.ar    1  UNL1       -0.0151
      5 C          -1.8334    0.1550    0.9840 C.ar    1  UNL1       -0.0519
      6 C          -2.8728   -0.7854    0.9807 C.ar    1  UNL1       -0.0342
      7 C          -3.1624   -1.3779   -0.2472 C.ar    1  UNL1        0.0858
      8 N          -4.0779   -2.3104   -0.6471 N.ar    1  UNL1       -0.2571
      9 N          -3.9791   -2.5805   -1.9586 N.ar    1  UNL1       -0.0673
     10 N          -3.0025   -1.8258   -2.4476 N.ar    1  UNL1       -0.1297
     11 C          -2.4866   -1.0799   -1.4219 C.ar    1  UNL1        0.1130
     12 C          -1.4513   -0.1355   -1.4025 C.ar    1  UNL1       -0.0247
     13 C           1.3081    1.1014    0.1317 C.ar    1  UNL1        0.0061
     14 C           2.2627    2.1287    0.1710 C.ar    1  UNL1        0.0225
     15 C           1.9268    3.4817   -0.0431 C.ar    1  UNL1       -0.0473
     16 S           3.8411    1.5376    0.5046 S.2     1  UNL1       -0.0687
     17 C           3.3051   -0.0643    0.5956 C.ar    1  UNL1        0.1093
     18 N           4.1878   -1.0533    0.8547 N.ar    1  UNL1       -0.2478
     19 C           3.6471   -2.2839    0.8958 C.ar    1  UNL1        0.0289
     20 C           2.3114   -2.5716    0.7015 C.ar    1  UNL1       -0.0429
     21 C           1.4362   -1.5193    0.4410 C.ar    1  UNL1       -0.0500
     22 C           1.9372   -0.1952    0.3806 C.ar    1  UNL1        0.0159
     23 H           0.3366    4.8636   -0.4714 H       1  UNL1        0.0618
     24 H          -1.4004    3.1241   -0.5511 H       1  UNL1        0.0624
     25 H          -1.5754    0.6433    1.9243 H       1  UNL1        0.0624
     26 H          -3.4161   -1.0296    1.8871 H       1  UNL1        0.0639
     27 H          -4.7805   -2.7938   -0.1016 H       1  UNL1        0.1907
     28 H          -0.9211    0.1019   -2.3196 H       1  UNL1        0.0646
     29 H           2.6934    4.2520   -0.0070 H       1  UNL1        0.0629
     30 H           4.3560   -3.0829    1.1002 H       1  UNL1        0.0830
     31 H           1.9525   -3.5940    0.7482 H       1  UNL1        0.0633
     32 H           0.3853   -1.7361    0.2842 H       1  UNL1        0.0625
@<TRIPOS>BOND
     1     1     2   ar
     2     2     3   ar
     3     3     4    1
     4     4     5   ar
     5     5     6   ar
     6     6     7   ar
     7     7     8   ar
     8     8     9   ar
     9     9    10   ar
    10    10    11   ar
    11    11    12   ar
    12     3    13   ar
    13    13    14   ar
    14    14    15   ar
    15    14    16   ar
    16    16    17   ar
    17    17    18   ar
    18    18    19   ar
    19    19    20   ar
    20    20    21   ar
    21    21    22   ar
    22    15     1   ar
    23    22    17   ar
    24    12     4   ar
    25    22    13   ar
    26    11     7   ar
    27     1    23    1
    28     2    24    1
    29     5    25    1
    30     6    26    1
    31     8    27    1
    32    12    28    1
    33    15    29    1
    34    19    30    1
    35    20    31    1
    36    21    32    1
