@<TRIPOS>MOLECULE
*****
 40 45 0 0 0
SMALL
GASTEIGER

@<TRIPOS>ATOM
      1 C          -2.5015    3.7666    0.8189 C.ar    1  UNL1       -0.0592
      2 C          -1.3078    3.1391    0.4749 C.ar    1  UNL1       -0.0533
      3 C          -1.2517    1.7509    0.2425 C.ar    1  UNL1       -0.0081
      4 C           0.0111    1.1047   -0.1145 C.ar    1  UNL1       -0.0153
      5 C           0.4100    1.0230   -1.4556 C.ar    1  UNL1       -0.0533
      6 C           1.6124    0.4044   -1.8243 C.ar    1  UNL1       -0.0514
      7 C           2.4413   -0.1461   -0.8272 C.ar    1  UNL1        0.0090
      8 C           2.0333   -0.0517    0.5055 C.ar    1  UNL1        0.0492
      9 C           0.8355    0.5656    0.8891 C.ar    1  UNL1       -0.0300
     10 N           3.0043   -0.6571    1.2700 N.ar    1  UNL1       -0.3390
     11 C           4.0094   -1.1323    0.4773 C.ar    1  UNL1        0.1391
     12 N           5.0991   -1.7751    0.9366 N.ar    1  UNL1       -0.2375
     13 C           5.9455   -2.1440   -0.0521 C.ar    1  UNL1        0.0299
     14 C           5.7592   -1.9102   -1.4087 C.ar    1  UNL1       -0.0429
     15 C           4.6100   -1.2387   -1.8285 C.ar    1  UNL1       -0.0490
     16 C           3.6949   -0.8319   -0.8421 C.ar    1  UNL1        0.0264
     17 C          -2.4446    0.9869    0.3630 C.ar    1  UNL1        0.0152
     18 C          -3.6226    1.6551    0.7114 C.ar    1  UNL1        0.0481
     19 C          -3.6818    3.0345    0.9440 C.ar    1  UNL1       -0.0377
     20 N          -4.6263    0.7171    0.7673 N.ar    1  UNL1       -0.3529
     21 C          -4.1495   -0.5336    0.4676 C.ar    1  UNL1        0.0658
     22 C          -4.8084   -1.7550    0.4061 C.ar    1  UNL1        0.0514
     23 N          -4.1109   -2.8656    0.0820 N.ar    1  UNL1       -0.2612
     24 C          -2.7900   -2.7537   -0.1741 C.ar    1  UNL1        0.0283
     25 C          -2.0735   -1.5671   -0.1303 C.ar    1  UNL1       -0.0338
     26 C          -2.7863   -0.4041    0.2071 C.ar    1  UNL1        0.0109
     27 H          -2.5135    4.8402    0.9926 H       1  UNL1        0.0618
     28 H          -0.4010    3.7349    0.3856 H       1  UNL1        0.0624
     29 H          -0.2261    1.4409   -2.2343 H       1  UNL1        0.0624
     30 H           1.8973    0.3508   -2.8709 H       1  UNL1        0.0624
     31 H           0.5436    0.6206    1.9345 H       1  UNL1        0.0644
     32 H           2.9954   -0.7494    2.2737 H       1  UNL1        0.1673
     33 H           6.8357   -2.6661    0.2916 H       1  UNL1        0.0830
     34 H           6.4973   -2.2456   -2.1293 H       1  UNL1        0.0633
     35 H           4.4309   -1.0385   -2.8793 H       1  UNL1        0.0625
     36 H          -4.6117    3.5259    1.2129 H       1  UNL1        0.0638
     37 H          -5.5870    0.9246    0.9977 H       1  UNL1        0.1659
     38 H          -5.8658   -1.8785    0.6045 H       1  UNL1        0.0851
     39 H          -2.2927   -3.6859   -0.4289 H       1  UNL1        0.0830
     40 H          -1.0132   -1.5555   -0.3500 H       1  UNL1        0.0639
@<TRIPOS>BOND
     1     1     2   ar
     2     2     3   ar
     3     3     4    1
     4     4     5   ar
     5     5     6   ar
     6     6     7   ar
     7     7     8   ar
     8     8     9   ar
     9     8    10   ar
    10    10    11   ar
    11    11    12   ar
    12    12    13   ar
    13    13    14   ar
    14    14    15   ar
    15    15    16   ar
    16     3    17   ar
    17    17    18   ar
    18    18    19   ar
    19    18    20   ar
    20    20    21   ar
    21    21    22   ar
    22    22    23   ar
    23    23    24   ar
    24    24    25   ar
    25    25    26   ar
    26    19     1   ar
    27    26    21   ar
    28     9     4   ar
    29    16    11   ar
    30    26    17   ar
    31    16     7   ar
    32     1    27    1
    33     2    28    1
    34     5    29    1
    35     6    30    1
    36     9    31    1
    37    10    32    1
    38    13    33    1
    39    14    34    1
    40    15    35    1
    41    19    36    1
    42    20    37    1
    43    22    38    1
    44    24    39    1
    45    25    40    1
