@<TRIPOS>MOLECULE
*****
 39 44 0 0 0
SMALL
GASTEIGER

@<TRIPOS>ATOM
      1 C          -2.4678   -3.7989    1.3594 C.ar    1  UNL1       -0.0577
      2 C          -1.2861   -3.0658    1.2333 C.ar    1  UNL1       -0.0532
      3 C          -1.2857   -1.7513    0.7223 C.ar    1  UNL1       -0.0064
      4 C          -0.0467   -0.9880    0.5872 C.ar    1  UNL1       -0.0152
      5 C           0.4473   -0.2443    1.6674 C.ar    1  UNL1       -0.0533
      6 C           1.6266    0.5054    1.5600 C.ar    1  UNL1       -0.0514
      7 C           2.3339    0.5120    0.3419 C.ar    1  UNL1        0.0090
      8 C           1.8322   -0.2389   -0.7239 C.ar    1  UNL1        0.0492
      9 C           0.6562   -0.9947   -0.6307 C.ar    1  UNL1       -0.0300
     10 N           2.6960   -0.0675   -1.7816 N.ar    1  UNL1       -0.3390
     11 C           3.7211    0.7635   -1.4314 C.ar    1  UNL1        0.1391
     12 N           4.7221    1.1230   -2.2561 N.ar    1  UNL1       -0.2375
     13 C           5.6138    1.9526   -1.6676 C.ar    1  UNL1        0.0299
     14 C           5.5505    2.4149   -0.3590 C.ar    1  UNL1       -0.0429
     15 C           4.4887    2.0102    0.4514 C.ar    1  UNL1       -0.0490
     16 C           3.5319    1.1467   -0.1095 C.ar    1  UNL1        0.0264
     17 C          -2.5230   -1.1796    0.3368 C.ar    1  UNL1        0.0372
     18 C          -3.6738   -1.9502    0.4804 C.ar    1  UNL1        0.1388
     19 C          -3.6946   -3.2508    0.9814 C.ar    1  UNL1       -0.0186
     20 O          -4.7720   -1.2653    0.0671 O.2     1  UNL1       -0.4368
     21 C          -4.3511   -0.0406   -0.3476 C.ar    1  UNL1        0.2284
     22 N          -5.1950    0.8950   -0.8221 N.ar    1  UNL1       -0.2205
     23 C          -4.5737    2.0399   -1.1764 C.ar    1  UNL1        0.0314
     24 C          -3.2104    2.2846   -1.0833 C.ar    1  UNL1       -0.0428
     25 C          -2.3750    1.2845   -0.5856 C.ar    1  UNL1       -0.0474
     26 C          -2.9684    0.0683   -0.2016 C.ar    1  UNL1        0.0482
     27 H          -2.4331   -4.8112    1.7568 H       1  UNL1        0.0619
     28 H          -0.3448   -3.5234    1.5356 H       1  UNL1        0.0624
     29 H          -0.0929   -0.2381    2.6130 H       1  UNL1        0.0624
     30 H           1.9877    1.0757    2.4110 H       1  UNL1        0.0624
     31 H           0.2916   -1.5673   -1.4795 H       1  UNL1        0.0644
     32 H           2.6052   -0.4853   -2.6945 H       1  UNL1        0.1673
     33 H           6.4350    2.2584   -2.3123 H       1  UNL1        0.0830
     34 H           6.3163    3.0801    0.0250 H       1  UNL1        0.0633
     35 H           4.4069    2.3508    1.4779 H       1  UNL1        0.0625
     36 H          -4.6228   -3.8031    1.0707 H       1  UNL1        0.0654
     37 H          -5.2389    2.8096   -1.5625 H       1  UNL1        0.0831
     38 H          -2.8018    3.2410   -1.3933 H       1  UNL1        0.0633
     39 H          -1.3056    1.4482   -0.4997 H       1  UNL1        0.0626
@<TRIPOS>BOND
     1     1     2   ar
     2     2     3   ar
     3     3     4    1
     4     4     5   ar
     5     5     6   ar
     6     6     7   ar
     7     7     8   ar
     8     8     9   ar
     9     8    10   ar
    10    10    11   ar
    11    11    12   ar
    12    12    13   ar
    13    13    14   ar
    14    14    15   ar
    15    15    16   ar
    16     3    17   ar
    17    17    18   ar
    18    18    19   ar
    19    18    20   ar
    20    20    21   ar
    21    21    22   ar
    22    22    23   ar
    23    23    24   ar
    24    24    25   ar
    25    25    26   ar
    26    19     1   ar
    27    26    21   ar
    28     9     4   ar
    29    16    11   ar
    30    26    17   ar
    31    16     7   ar
    32     1    27    1
    33     2    28    1
    34     5    29    1
    35     6    30    1
    36     9    31    1
    37    10    32    1
    38    13    33    1
    39    14    34    1
    40    15    35    1
    41    19    36    1
    42    23    37    1
    43    24    38    1
    44    25    39    1
