@<TRIPOS>MOLECULE
*****
 39 44 0 0 0
SMALL
GASTEIGER

@<TRIPOS>ATOM
      1 C          -3.6120    2.3739   -2.2085 C.ar    1  UNL1       -0.0577
      2 C          -2.2687    2.1586   -1.8945 C.ar    1  UNL1       -0.0532
      3 C          -1.8769    1.1611   -0.9774 C.ar    1  UNL1       -0.0065
      4 C          -0.4700    0.9373   -0.6537 C.ar    1  UNL1       -0.0161
      5 C           0.1624    1.7003    0.3277 C.ar    1  UNL1       -0.0534
      6 C           1.5075    1.4863    0.6503 C.ar    1  UNL1       -0.0524
      7 C           2.2631    0.4874   -0.0149 C.ar    1  UNL1       -0.0031
      8 C           1.6192   -0.2635   -0.9975 C.ar    1  UNL1        0.0211
      9 C           0.2648   -0.0499   -1.3282 C.ar    1  UNL1       -0.0397
     10 S           2.6736   -1.4212   -1.6965 S.2     1  UNL1       -0.0882
     11 C           3.9977   -0.9502   -0.7137 C.ar    1  UNL1        0.0205
     12 C           5.2957   -1.4997   -0.7273 C.ar    1  UNL1       -0.0474
     13 C           6.2576   -0.9914    0.1473 C.ar    1  UNL1       -0.0607
     14 C           5.9405    0.0402    1.0177 C.ar    1  UNL1       -0.0611
     15 C           4.6514    0.5815    1.0271 C.ar    1  UNL1       -0.0529
     16 C           3.6489    0.0881    0.1508 C.ar    1  UNL1       -0.0031
     17 C          -2.8853    0.3726   -0.3706 C.ar    1  UNL1        0.0372
     18 C          -4.2104    0.6249   -0.7162 C.ar    1  UNL1        0.1388
     19 C          -4.6171    1.6043   -1.6208 C.ar    1  UNL1       -0.0186
     20 O          -5.0530   -0.2102   -0.0541 O.2     1  UNL1       -0.4368
     21 C          -4.2887   -1.0145    0.7318 C.ar    1  UNL1        0.2284
     22 N          -4.8152   -1.9648    1.5270 N.ar    1  UNL1       -0.2205
     23 C          -3.8842   -2.6497    2.2242 C.ar    1  UNL1        0.0314
     24 C          -2.5132   -2.4392    2.1690 C.ar    1  UNL1       -0.0428
     25 C          -2.0140   -1.4421    1.3308 C.ar    1  UNL1       -0.0474
     26 C          -2.9394   -0.6971    0.5775 C.ar    1  UNL1        0.0482
     27 H          -3.8802    3.1507   -2.9216 H       1  UNL1        0.0619
     28 H          -1.5089    2.7753   -2.3733 H       1  UNL1        0.0624
     29 H          -0.3910    2.4724    0.8601 H       1  UNL1        0.0624
     30 H           1.9721    2.0956    1.4217 H       1  UNL1        0.0624
     31 H          -0.2071   -0.6547   -2.0998 H       1  UNL1        0.0635
     32 H           5.5465   -2.3078   -1.4091 H       1  UNL1        0.0629
     33 H           7.2618   -1.4089    0.1433 H       1  UNL1        0.0618
     34 H           6.6952    0.4314    1.6957 H       1  UNL1        0.0618
     35 H           4.4200    1.3904    1.7155 H       1  UNL1        0.0624
     36 H          -5.6654    1.7548   -1.8513 H       1  UNL1        0.0654
     37 H          -4.2897   -3.4237    2.8727 H       1  UNL1        0.0831
     38 H          -1.8406   -3.0429    2.7698 H       1  UNL1        0.0633
     39 H          -0.9469   -1.2553    1.2691 H       1  UNL1        0.0626
@<TRIPOS>BOND
     1     1     2   ar
     2     2     3   ar
     3     3     4    1
     4     4     5   ar
     5     5     6   ar
     6     6     7   ar
     7     7     8   ar
     8     8     9   ar
     9     8    10   ar
    10    10    11   ar
    11    11    12   ar
    12    12    13   ar
    13    13    14   ar
    14    14    15   ar
    15    15    16   ar
    16     3    17   ar
    17    17    18   ar
    18    18    19   ar
    19    18    20   ar
    20    20    21   ar
    21    21    22   ar
    22    22    23   ar
    23    23    24   ar
    24    24    25   ar
    25    25    26   ar
    26    19     1   ar
    27    26    21   ar
    28     9     4   ar
    29    16    11   ar
    30    26    17   ar
    31    16     7   ar
    32     1    27    1
    33     2    28    1
    34     5    29    1
    35     6    30    1
    36     9    31    1
    37    12    32    1
    38    13    33    1
    39    14    34    1
    40    15    35    1
    41    19    36    1
    42    23    37    1
    43    24    38    1
    44    25    39    1
