@<TRIPOS>MOLECULE
*****
 35 39 0 0 0
SMALL
GASTEIGER

@<TRIPOS>ATOM
      1 C          -1.2950    1.1774    3.4863 C.ar    1  UNL1       -0.0592
      2 C          -0.1903    1.1215    2.6419 C.ar    1  UNL1       -0.0533
      3 C          -0.2925    0.6010    1.3367 C.ar    1  UNL1       -0.0081
      4 C           0.8767    0.5546    0.4620 C.ar    1  UNL1       -0.0151
      5 C           1.1736    1.6190   -0.3933 C.ar    1  UNL1       -0.0519
      6 C           2.2964    1.5636   -1.2221 C.ar    1  UNL1       -0.0337
      7 C           3.1422    0.4635   -1.2176 C.ar    1  UNL1        0.0892
      8 N           4.2136    0.4462   -2.0350 N.ar    1  UNL1       -0.2519
      9 C           4.9928   -0.6552   -1.9788 C.ar    1  UNL1        0.0464
     10 C           4.7155   -1.7107   -1.1354 C.ar    1  UNL1        0.0464
     11 N           3.6465   -1.7120   -0.3105 N.ar    1  UNL1       -0.2519
     12 C           2.8559   -0.6207   -0.3508 C.ar    1  UNL1        0.0897
     13 C           1.7358   -0.5540    0.4694 C.ar    1  UNL1       -0.0265
     14 C          -1.5537    0.1241    0.8853 C.ar    1  UNL1        0.0152
     15 C          -2.6386    0.1998    1.7644 C.ar    1  UNL1        0.0481
     16 C          -2.5409    0.7177    3.0616 C.ar    1  UNL1       -0.0377
     17 N          -3.7346   -0.3120    1.1111 N.ar    1  UNL1       -0.3529
     18 C          -3.4069   -0.7189   -0.1569 C.ar    1  UNL1        0.0658
     19 C          -4.1961   -1.2872   -1.1488 C.ar    1  UNL1        0.0514
     20 N          -3.6353   -1.6096   -2.3345 N.ar    1  UNL1       -0.2612
     21 C          -2.3196   -1.3709   -2.5189 C.ar    1  UNL1        0.0283
     22 C          -1.4775   -0.8067   -1.5720 C.ar    1  UNL1       -0.0338
     23 C          -2.0478   -0.4638   -0.3344 C.ar    1  UNL1        0.0109
     24 H          -1.1854    1.5843    4.4891 H       1  UNL1        0.0618
     25 H           0.7695    1.4885    3.0015 H       1  UNL1        0.0624
     26 H           0.5295    2.4960   -0.4228 H       1  UNL1        0.0624
     27 H           2.5163    2.3960   -1.8861 H       1  UNL1        0.0640
     28 H           5.8536   -0.6641   -2.6373 H       1  UNL1        0.0845
     29 H           5.3473   -2.5905   -1.0979 H       1  UNL1        0.0845
     30 H           1.5262   -1.3947    1.1284 H       1  UNL1        0.0645
     31 H          -3.4015    0.7623    3.7218 H       1  UNL1        0.0638
     32 H          -4.6575   -0.3797    1.5147 H       1  UNL1        0.1659
     33 H          -5.2528   -1.4936   -1.0320 H       1  UNL1        0.0851
     34 H          -1.9352   -1.6576   -3.4943 H       1  UNL1        0.0830
     35 H          -0.4303   -0.6478   -1.7947 H       1  UNL1        0.0639
@<TRIPOS>BOND
     1     1     2   ar
     2     2     3   ar
     3     3     4    1
     4     4     5   ar
     5     5     6   ar
     6     6     7   ar
     7     7     8   ar
     8     8     9   ar
     9     9    10   ar
    10    10    11   ar
    11    11    12   ar
    12    12    13   ar
    13     3    14   ar
    14    14    15   ar
    15    15    16   ar
    16    15    17   ar
    17    17    18   ar
    18    18    19   ar
    19    19    20   ar
    20    20    21   ar
    21    21    22   ar
    22    22    23   ar
    23    16     1   ar
    24    23    18   ar
    25    13     4   ar
    26    23    14   ar
    27    12     7   ar
    28     1    24    1
    29     2    25    1
    30     5    26    1
    31     6    27    1
    32     9    28    1
    33    10    29    1
    34    13    30    1
    35    16    31    1
    36    17    32    1
    37    19    33    1
    38    21    34    1
    39    22    35    1
