@<TRIPOS>MOLECULE
*****
 39 44 0 0 0
SMALL
GASTEIGER

@<TRIPOS>ATOM
      1 SI         -1.9965   -3.9784    1.0174 Si      1  UNL1        0.0000
      2 C          -0.4411   -3.0180    0.7055 C.2     1  UNL1        0.0000
      3 C          -0.7020   -1.7259    0.4202 C.ar    1  UNL1        0.0000
      4 C           0.3156   -0.7371    0.0947 C.ar    1  UNL1        0.0000
      5 C           1.7724   -0.9103    0.0939 C.2     1  UNL1        0.0000
      6 C           2.5075    0.1627   -0.2620 C.2     1  UNL1        0.0000
      7 SI          1.3455    1.6202   -0.6587 Si      1  UNL1        0.0000
      8 C          -0.0920    0.5086   -0.2503 C.ar    1  UNL1        0.0000
      9 C          -1.4942    0.9480   -0.2680 C.ar    1  UNL1        0.0000
     10 N          -1.6983    2.2411   -0.5932 N.ar    1  UNL1        0.0000
     11 C          -2.9486    2.7350   -0.5699 C.ar    1  UNL1        0.0000
     12 C          -4.0467    1.9431   -0.2085 C.ar    1  UNL1        0.0000
     13 C          -5.4312    2.3191   -0.1031 C.ar    1  UNL1        0.0000
     14 C          -6.2370    1.2835    0.2857 C.ar    1  UNL1        0.0000
     15 S          -5.3505   -0.1424    0.5165 S.2     1  UNL1        0.0000
     16 C          -3.8309    0.5914    0.1106 C.ar    1  UNL1        0.0000
     17 C          -2.5240    0.0459    0.0800 C.ar    1  UNL1        0.0000
     18 C          -2.1523   -1.3602    0.4084 C.ar    1  UNL1        0.0000
     19 C          -2.9566   -2.4082    0.6843 C.2     1  UNL1        0.0000
     20 C           3.9408    0.2459   -0.3117 C.2     1  UNL1        0.0000
     21 C           4.8084   -0.1812    0.6320 C.2     1  UNL1        0.0000
     22 C           6.2198   -0.0100    0.3249 C.2     1  UNL1        0.0000
     23 C           6.4844    0.5619   -0.8636 C.2     1  UNL1        0.0000
     24 SI          4.9034    0.9793   -1.7859 Si      1  UNL1        0.0000
     25 H          -2.2398   -5.0194   -0.0072 H       1  UNL1        0.0000
     26 H          -2.1176   -4.4300    2.4208 H       1  UNL1        0.0000
     27 H           0.5224   -3.5009    0.7496 H       1  UNL1        0.0000
     28 H           2.2128   -1.8553    0.3840 H       1  UNL1        0.0000
     29 H           1.5671    2.7448    0.3009 H       1  UNL1        0.0000
     30 H           1.4569    1.9724   -2.0909 H       1  UNL1        0.0000
     31 H          -3.0494    3.7852   -0.8336 H       1  UNL1        0.0000
     32 H          -5.8072    3.3157   -0.2974 H       1  UNL1        0.0000
     33 H          -7.3068    1.2988    0.4441 H       1  UNL1        0.0000
     34 H          -4.0279   -2.4599    0.7252 H       1  UNL1        0.0000
     35 H           4.5076   -0.6305    1.5696 H       1  UNL1        0.0000
     36 H           6.9822   -0.3457    1.0181 H       1  UNL1        0.0000
     37 H           7.4570    0.7685   -1.2841 H       1  UNL1        0.0000
     38 H           4.7493    0.1984   -3.0360 H       1  UNL1        0.0000
     39 H           4.6971    2.4440   -1.9212 H       1  UNL1        0.0000
@<TRIPOS>BOND
     1     1     2    1
     2     2     3    2
     3     3     4   ar
     4     4     5    1
     5     5     6    2
     6     6     7    1
     7     7     8    1
     8     8     9   ar
     9     9    10   ar
    10    10    11   ar
    11    11    12   ar
    12    12    13   ar
    13    13    14   ar
    14    14    15   ar
    15    15    16   ar
    16    16    17   ar
    17    17    18   ar
    18    18    19    2
    19     6    20    1
    20    20    21    2
    21    21    22    1
    22    22    23    2
    23    23    24    1
    24    19     1    1
    25    24    20    1
    26    18     3   ar
    27     8     4   ar
    28    17     9   ar
    29    16    12   ar
    30     1    25    1
    31     1    26    1
    32     2    27    1
    33     5    28    1
    34     7    29    1
    35     7    30    1
    36    11    31    1
    37    13    32    1
    38    14    33    1
    39    19    34    1
    40    21    35    1
    41    22    36    1
    42    23    37    1
    43    24    38    1
    44    24    39    1
