@<TRIPOS>MOLECULE
*****
 34 38 0 0 0
SMALL
GASTEIGER

@<TRIPOS>ATOM
      1 C          -1.3171    2.8574   -2.5801 C.ar    1  UNL1       -0.0577
      2 C          -0.2390    2.0498   -2.2129 C.ar    1  UNL1       -0.0532
      3 C          -0.3663    1.0574   -1.2184 C.ar    1  UNL1       -0.0064
      4 C           0.7648    0.2158   -0.8394 C.ar    1  UNL1       -0.0150
      5 C           1.0534   -0.9555   -1.5441 C.ar    1  UNL1       -0.0519
      6 C           2.1372   -1.7531   -1.1695 C.ar    1  UNL1       -0.0337
      7 C           2.9513   -1.4080   -0.1000 C.ar    1  UNL1        0.0892
      8 N           3.9849   -2.2057    0.2332 N.ar    1  UNL1       -0.2519
      9 C           4.7352   -1.8082    1.2833 C.ar    1  UNL1        0.0464
     10 C           4.4645   -0.6521    1.9851 C.ar    1  UNL1        0.0464
     11 N           3.4316    0.1579    1.6680 N.ar    1  UNL1       -0.2519
     12 C           2.6724   -0.2199    0.6203 C.ar    1  UNL1        0.0897
     13 C           1.5919    0.5662    0.2379 C.ar    1  UNL1       -0.0265
     14 C          -1.6258    0.8921   -0.5911 C.ar    1  UNL1        0.0372
     15 C          -2.6703    1.7213   -0.9922 C.ar    1  UNL1        0.1388
     16 C          -2.5639    2.7073   -1.9716 C.ar    1  UNL1       -0.0186
     17 O          -3.8064    1.4407   -0.3026 O.2     1  UNL1       -0.4368
     18 C          -3.5176    0.4264    0.5553 C.ar    1  UNL1        0.2284
     19 N          -4.4317   -0.0977    1.3931 N.ar    1  UNL1       -0.2205
     20 C          -3.9408   -1.0944    2.1594 C.ar    1  UNL1        0.0314
     21 C          -2.6381   -1.5728    2.1289 C.ar    1  UNL1       -0.0428
     22 C          -1.7259   -0.9993    1.2427 C.ar    1  UNL1       -0.0474
     23 C          -2.1823    0.0463    0.4197 C.ar    1  UNL1        0.0482
     24 H          -1.1848    3.6148   -3.3500 H       1  UNL1        0.0619
     25 H           0.7208    2.1954   -2.7073 H       1  UNL1        0.0624
     26 H           0.4349   -1.2581   -2.3873 H       1  UNL1        0.0624
     27 H           2.3519   -2.6639   -1.7234 H       1  UNL1        0.0640
     28 H           5.5668   -2.4517    1.5458 H       1  UNL1        0.0845
     29 H           5.0728   -0.3416    2.8267 H       1  UNL1        0.0845
     30 H           1.3906    1.4757    0.8015 H       1  UNL1        0.0645
     31 H          -3.4134    3.3239   -2.2418 H       1  UNL1        0.0654
     32 H          -4.6645   -1.5306    2.8450 H       1  UNL1        0.0831
     33 H          -2.3353   -2.3813    2.7865 H       1  UNL1        0.0633
     34 H          -0.7019   -1.3546    1.1993 H       1  UNL1        0.0626
@<TRIPOS>BOND
     1     1     2   ar
     2     2     3   ar
     3     3     4    1
     4     4     5   ar
     5     5     6   ar
     6     6     7   ar
     7     7     8   ar
     8     8     9   ar
     9     9    10   ar
    10    10    11   ar
    11    11    12   ar
    12    12    13   ar
    13     3    14   ar
    14    14    15   ar
    15    15    16   ar
    16    15    17   ar
    17    17    18   ar
    18    18    19   ar
    19    19    20   ar
    20    20    21   ar
    21    21    22   ar
    22    22    23   ar
    23    16     1   ar
    24    23    18   ar
    25    13     4   ar
    26    23    14   ar
    27    12     7   ar
    28     1    24    1
    29     2    25    1
    30     5    26    1
    31     6    27    1
    32     9    28    1
    33    10    29    1
    34    13    30    1
    35    16    31    1
    36    20    32    1
    37    21    33    1
    38    22    34    1
