@<TRIPOS>MOLECULE
*****
 34 38 0 0 0
SMALL
GASTEIGER

@<TRIPOS>ATOM
      1 C           1.1673    3.9277    0.3105 C.ar    1  UNL1       -0.0601
      2 C           0.1372    3.0346    0.0686 C.ar    1  UNL1       -0.0534
      3 C           0.3793    1.6491   -0.0294 C.ar    1  UNL1       -0.0090
      4 C          -0.7440    0.7494   -0.2917 C.ar    1  UNL1       -0.0151
      5 C          -1.1139    0.4286   -1.6009 C.ar    1  UNL1       -0.0519
      6 C          -2.1974   -0.4204   -1.8376 C.ar    1  UNL1       -0.0337
      7 C          -2.9333   -0.9595   -0.7917 C.ar    1  UNL1        0.0892
      8 N          -3.9691   -1.7782   -1.0611 N.ar    1  UNL1       -0.2519
      9 C          -4.6419   -2.2646    0.0040 C.ar    1  UNL1        0.0464
     10 C          -4.2939   -1.9491    1.3008 C.ar    1  UNL1        0.0464
     11 N          -3.2575   -1.1332    1.5903 N.ar    1  UNL1       -0.2519
     12 C          -2.5746   -0.6350    0.5405 C.ar    1  UNL1        0.0897
     13 C          -1.4949    0.2112    0.7642 C.ar    1  UNL1       -0.0265
     14 C           1.7107    1.1412    0.1244 C.ar    1  UNL1        0.0061
     15 C           2.7253    2.0795    0.3660 C.ar    1  UNL1        0.0225
     16 C           2.4691    3.4632    0.4605 C.ar    1  UNL1       -0.0473
     17 S           4.2690    1.3423    0.5248 S.2     1  UNL1       -0.0687
     18 C           3.6379   -0.2089    0.2858 C.ar    1  UNL1        0.1093
     19 N           4.4620   -1.2787    0.3079 N.ar    1  UNL1       -0.2478
     20 C           3.8470   -2.4581    0.1101 C.ar    1  UNL1        0.0289
     21 C           2.4935   -2.6220   -0.1035 C.ar    1  UNL1       -0.0429
     22 C           1.6816   -1.4898   -0.1198 C.ar    1  UNL1       -0.0500
     23 C           2.2620   -0.2130    0.0820 C.ar    1  UNL1        0.0159
     24 H           0.9603    4.9926    0.3831 H       1  UNL1        0.0618
     25 H          -0.8766    3.4157   -0.0471 H       1  UNL1        0.0624
     26 H          -0.5595    0.8351   -2.4450 H       1  UNL1        0.0624
     27 H          -2.4749   -0.6665   -2.8597 H       1  UNL1        0.0640
     28 H          -5.4756   -2.9207   -0.2178 H       1  UNL1        0.0845
     29 H          -4.8403   -2.3447    2.1491 H       1  UNL1        0.0845
     30 H          -1.2319    0.4521    1.7928 H       1  UNL1        0.0645
     31 H           3.2803    4.1620    0.6499 H       1  UNL1        0.0629
     32 H           4.5077   -3.3217    0.1289 H       1  UNL1        0.0830
     33 H           2.0720   -3.6100   -0.2539 H       1  UNL1        0.0633
     34 H           0.6168   -1.6105   -0.2849 H       1  UNL1        0.0625
@<TRIPOS>BOND
     1     1     2   ar
     2     2     3   ar
     3     3     4    1
     4     4     5   ar
     5     5     6   ar
     6     6     7   ar
     7     7     8   ar
     8     8     9   ar
     9     9    10   ar
    10    10    11   ar
    11    11    12   ar
    12    12    13   ar
    13     3    14   ar
    14    14    15   ar
    15    15    16   ar
    16    15    17   ar
    17    17    18   ar
    18    18    19   ar
    19    19    20   ar
    20    20    21   ar
    21    21    22   ar
    22    22    23   ar
    23    16     1   ar
    24    23    18   ar
    25    13     4   ar
    26    23    14   ar
    27    12     7   ar
    28     1    24    1
    29     2    25    1
    30     5    26    1
    31     6    27    1
    32     9    28    1
    33    10    29    1
    34    13    30    1
    35    16    31    1
    36    20    32    1
    37    21    33    1
    38    22    34    1
