@<TRIPOS>MOLECULE
*****
 33 37 0 0 0
SMALL
GASTEIGER

@<TRIPOS>ATOM
      1 C          -1.7627   -2.1300   -2.5424 C.ar    1  UNL1       -0.0592
      2 C          -0.5199   -1.8060   -2.0083 C.ar    1  UNL1       -0.0518
      3 C          -0.3942   -0.9451   -0.8966 C.ar    1  UNL1        0.0116
      4 C           0.9193   -0.6811   -0.3188 C.ar    1  UNL1        0.0922
      5 C           1.2575   -1.0520    0.9739 C.ar    1  UNL1        0.0561
      6 N           2.4782   -0.8247    1.5078 N.ar    1  UNL1       -0.2310
      7 C           3.3800   -0.2337    0.7153 C.ar    1  UNL1        0.1977
      8 N           4.5992    0.0045    1.2175 N.ar    1  UNL1       -0.2316
      9 C           5.4919    0.5967    0.3990 C.ar    1  UNL1        0.0482
     10 C           5.1775    0.9460   -0.8953 C.ar    1  UNL1        0.0482
     11 N           3.9575    0.7179   -1.4220 N.ar    1  UNL1       -0.2316
     12 C           3.0511    0.1316   -0.6276 C.ar    1  UNL1        0.1983
     13 N           1.8318   -0.0992   -1.1306 N.ar    1  UNL1       -0.2231
     14 C          -1.5738   -0.3650   -0.3489 C.ar    1  UNL1        0.0167
     15 C          -2.8044   -0.7317   -0.9054 C.ar    1  UNL1        0.0481
     16 C          -2.9296   -1.6082   -1.9897 C.ar    1  UNL1       -0.0377
     17 N          -3.7886   -0.0821   -0.1997 N.ar    1  UNL1       -0.3529
     18 C          -3.2493    0.7238    0.7691 C.ar    1  UNL1        0.0658
     19 C          -3.8745    1.5596    1.6859 C.ar    1  UNL1        0.0514
     20 N          -3.1200    2.2852    2.5382 N.ar    1  UNL1       -0.2612
     21 C          -1.7768    2.1869    2.4638 C.ar    1  UNL1        0.0283
     22 C          -1.0917    1.3717    1.5738 C.ar    1  UNL1       -0.0338
     23 C          -1.8631    0.5912    0.6943 C.ar    1  UNL1        0.0109
     24 H          -1.8232   -2.8001   -3.3971 H       1  UNL1        0.0618
     25 H           0.3757   -2.2334   -2.4583 H       1  UNL1        0.0624
     26 H           0.5472   -1.5478    1.6289 H       1  UNL1        0.0852
     27 H           6.4743    0.7826    0.8186 H       1  UNL1        0.0846
     28 H           5.8988    1.4217   -1.5505 H       1  UNL1        0.0846
     29 H          -3.9001   -1.8659   -2.4031 H       1  UNL1        0.0638
     30 H          -4.7768   -0.1699   -0.3884 H       1  UNL1        0.1659
     31 H          -4.9490    1.6742    1.7603 H       1  UNL1        0.0851
     32 H          -1.2329    2.8117    3.1678 H       1  UNL1        0.0830
     33 H          -0.0093    1.3705    1.5685 H       1  UNL1        0.0639
@<TRIPOS>BOND
     1     1     2   ar
     2     2     3   ar
     3     3     4    1
     4     4     5   ar
     5     5     6   ar
     6     6     7   ar
     7     7     8   ar
     8     8     9   ar
     9     9    10   ar
    10    10    11   ar
    11    11    12   ar
    12    12    13   ar
    13     3    14   ar
    14    14    15   ar
    15    15    16   ar
    16    15    17   ar
    17    17    18   ar
    18    18    19   ar
    19    19    20   ar
    20    20    21   ar
    21    21    22   ar
    22    22    23   ar
    23    16     1   ar
    24    23    18   ar
    25    13     4   ar
    26    23    14   ar
    27    12     7   ar
    28     1    24    1
    29     2    25    1
    30     5    26    1
    31     9    27    1
    32    10    28    1
    33    16    29    1
    34    17    30    1
    35    19    31    1
    36    21    32    1
    37    22    33    1
