@<TRIPOS>MOLECULE
*****
 32 36 0 0 0
SMALL
GASTEIGER

@<TRIPOS>ATOM
      1 C          -1.7150    3.4240   -0.4971 C.ar    1  UNL1       -0.0576
      2 C          -0.8209    2.4771   -0.9982 C.ar    1  UNL1       -0.0517
      3 C          -0.6281    1.2258   -0.3687 C.ar    1  UNL1        0.0133
      4 C           0.2753    0.2348   -0.9421 C.ar    1  UNL1        0.0922
      5 C          -0.1486   -1.0135   -1.3713 C.ar    1  UNL1        0.0561
      6 N           0.6884   -1.9286   -1.9078 N.ar    1  UNL1       -0.2310
      7 C           1.9711   -1.5689   -2.0365 C.ar    1  UNL1        0.1977
      8 N           2.8242   -2.4556   -2.5665 N.ar    1  UNL1       -0.2316
      9 C           4.1096   -2.0677   -2.6903 C.ar    1  UNL1        0.0482
     10 C           4.5385   -0.8211   -2.2923 C.ar    1  UNL1        0.0482
     11 N           3.6991    0.0864   -1.7537 N.ar    1  UNL1       -0.2316
     12 C           2.4160   -0.2755   -1.6198 C.ar    1  UNL1        0.1983
     13 N           1.5667    0.6101   -1.0825 N.ar    1  UNL1       -0.2231
     14 C          -1.3427    0.9662    0.8296 C.ar    1  UNL1        0.0388
     15 C          -2.2319    1.9397    1.2822 C.ar    1  UNL1        0.1389
     16 C          -2.4530    3.1652    0.6564 C.ar    1  UNL1       -0.0186
     17 O          -2.8581    1.5391    2.4178 O.2     1  UNL1       -0.4368
     18 C          -2.3653    0.3161    2.7420 C.ar    1  UNL1        0.2284
     19 N          -2.7729   -0.3619    3.8307 N.ar    1  UNL1       -0.2205
     20 C          -2.1444   -1.5443    3.9896 C.ar    1  UNL1        0.0314
     21 C          -1.1676   -2.0581    3.1491 C.ar    1  UNL1       -0.0428
     22 C          -0.7794   -1.3212    2.0290 C.ar    1  UNL1       -0.0474
     23 C          -1.4112   -0.0832    1.8049 C.ar    1  UNL1        0.0482
     24 H          -1.8385    4.3745   -1.0122 H       1  UNL1        0.0619
     25 H          -0.2592    2.7120   -1.9028 H       1  UNL1        0.0624
     26 H          -1.1871   -1.3218   -1.2963 H       1  UNL1        0.0852
     27 H           4.7883   -2.7946   -3.1226 H       1  UNL1        0.0846
     28 H           5.5732   -0.5130   -2.3941 H       1  UNL1        0.0846
     29 H          -3.1554    3.8842    1.0624 H       1  UNL1        0.0654
     30 H          -2.4588   -2.1059    4.8670 H       1  UNL1        0.0831
     31 H          -0.7093   -3.0183    3.3646 H       1  UNL1        0.0633
     32 H          -0.0031   -1.7021    1.3742 H       1  UNL1        0.0626
@<TRIPOS>BOND
     1     1     2   ar
     2     2     3   ar
     3     3     4    1
     4     4     5   ar
     5     5     6   ar
     6     6     7   ar
     7     7     8   ar
     8     8     9   ar
     9     9    10   ar
    10    10    11   ar
    11    11    12   ar
    12    12    13   ar
    13     3    14   ar
    14    14    15   ar
    15    15    16   ar
    16    15    17   ar
    17    17    18   ar
    18    18    19   ar
    19    19    20   ar
    20    20    21   ar
    21    21    22   ar
    22    22    23   ar
    23    16     1   ar
    24    23    18   ar
    25    13     4   ar
    26    23    14   ar
    27    12     7   ar
    28     1    24    1
    29     2    25    1
    30     5    26    1
    31     9    27    1
    32    10    28    1
    33    16    29    1
    34    20    30    1
    35    21    31    1
    36    22    32    1
