@<TRIPOS>MOLECULE
*****
 32 36 0 0 0
SMALL
GASTEIGER

@<TRIPOS>ATOM
      1 C          -1.6625   -2.2349   -2.8533 C.ar    1  UNL1       -0.0601
      2 C          -0.4877   -1.7334   -2.3190 C.ar    1  UNL1       -0.0519
      3 C          -0.5037   -0.8007   -1.2606 C.ar    1  UNL1        0.0107
      4 C           0.7587   -0.2491   -0.7815 C.ar    1  UNL1        0.0922
      5 C           1.1684    1.0420   -1.0780 C.ar    1  UNL1        0.0561
      6 N           2.3446    1.5515   -0.6507 N.ar    1  UNL1       -0.2310
      7 C           3.1276    0.7388    0.0693 C.ar    1  UNL1        0.1977
      8 N           4.3005    1.2173    0.5053 N.ar    1  UNL1       -0.2316
      9 C           5.0723    0.3792    1.2263 C.ar    1  UNL1        0.0482
     10 C           4.6829   -0.9105    1.5109 C.ar    1  UNL1        0.0482
     11 N           3.5059   -1.4129    1.0862 N.ar    1  UNL1       -0.2316
     12 C           2.7212   -0.6000    0.3660 C.ar    1  UNL1        0.1983
     13 N           1.5460   -1.0792   -0.0619 N.ar    1  UNL1       -0.2231
     14 C          -1.7526   -0.3898   -0.6900 C.ar    1  UNL1        0.0077
     15 C          -2.9196   -0.9026   -1.2759 C.ar    1  UNL1        0.0226
     16 C          -2.8886   -1.8163   -2.3496 C.ar    1  UNL1       -0.0473
     17 S          -4.3431   -0.2816   -0.5412 S.2     1  UNL1       -0.0687
     18 C          -3.4605    0.6187    0.5864 C.ar    1  UNL1        0.1093
     19 N          -4.1103    1.3626    1.5070 N.ar    1  UNL1       -0.2478
     20 C          -3.3059    2.0079    2.3696 C.ar    1  UNL1        0.0289
     21 C          -1.9271    1.9487    2.3647 C.ar    1  UNL1       -0.0429
     22 C          -1.2979    1.1730    1.3929 C.ar    1  UNL1       -0.0500
     23 C          -2.0842    0.4782    0.4402 C.ar    1  UNL1        0.0160
     24 H          -1.6281   -2.9513   -3.6708 H       1  UNL1        0.0618
     25 H           0.4651   -2.0667   -2.7297 H       1  UNL1        0.0624
     26 H           0.5553    1.7138   -1.6710 H       1  UNL1        0.0852
     27 H           6.0197    0.7794    1.5703 H       1  UNL1        0.0846
     28 H           5.3067   -1.5814    2.0911 H       1  UNL1        0.0846
     29 H          -3.8134   -2.1998   -2.7741 H       1  UNL1        0.0629
     30 H          -3.8268    2.6051    3.1146 H       1  UNL1        0.0830
     31 H          -1.3476    2.4898    3.1051 H       1  UNL1        0.0633
     32 H          -0.2155    1.1041    1.4014 H       1  UNL1        0.0625
@<TRIPOS>BOND
     1     1     2   ar
     2     2     3   ar
     3     3     4    1
     4     4     5   ar
     5     5     6   ar
     6     6     7   ar
     7     7     8   ar
     8     8     9   ar
     9     9    10   ar
    10    10    11   ar
    11    11    12   ar
    12    12    13   ar
    13     3    14   ar
    14    14    15   ar
    15    15    16   ar
    16    15    17   ar
    17    17    18   ar
    18    18    19   ar
    19    19    20   ar
    20    20    21   ar
    21    21    22   ar
    22    22    23   ar
    23    16     1   ar
    24    23    18   ar
    25    13     4   ar
    26    23    14   ar
    27    12     7   ar
    28     1    24    1
    29     2    25    1
    30     5    26    1
    31     9    27    1
    32    10    28    1
    33    16    29    1
    34    20    30    1
    35    21    31    1
    36    22    32    1
