@<TRIPOS>MOLECULE
*****
 27 30 0 0 0
SMALL
GASTEIGER

@<TRIPOS>ATOM
      1 C           0.6055    3.1933   -0.3075 C.ar    1  UNL1       -0.0592
      2 C           1.5540    2.1768   -0.2548 C.ar    1  UNL1       -0.0532
      3 C           1.1570    0.8373   -0.1139 C.ar    1  UNL1       -0.0036
      4 C           2.1473   -0.2016   -0.0364 C.ar    1  UNL1        0.0414
      5 C           2.6771   -0.8993    1.0660 C.ar    1  UNL1        0.0777
      6 N           3.5908   -1.8008    0.6947 N.ar    1  UNL1       -0.0862
      7 O           3.6768   -1.6864   -0.6861 O.2     1  UNL1       -0.3623
      8 C           2.8156   -0.7274   -1.1131 C.ar    1  UNL1        0.1319
      9 C          -0.2199    0.5090   -0.0292 C.ar    1  UNL1        0.0153
     10 C          -1.1379    1.5634   -0.0815 C.ar    1  UNL1        0.0481
     11 C          -0.7576    2.9050   -0.2192 C.ar    1  UNL1       -0.0377
     12 N          -2.3958    1.0195    0.0262 N.ar    1  UNL1       -0.3529
     13 C          -2.3334   -0.3466    0.1332 C.ar    1  UNL1        0.0658
     14 C          -3.3524   -1.2830    0.2545 C.ar    1  UNL1        0.0514
     15 N          -3.0373   -2.5935    0.3372 N.ar    1  UNL1       -0.2612
     16 C          -1.7379   -2.9556    0.2960 C.ar    1  UNL1        0.0283
     17 C          -0.6743   -2.0728    0.1769 C.ar    1  UNL1       -0.0338
     18 C          -0.9862   -0.7047    0.0964 C.ar    1  UNL1        0.0109
     19 H           0.9293    4.2265   -0.4146 H       1  UNL1        0.0618
     20 H           2.6102    2.4317   -0.3168 H       1  UNL1        0.0624
     21 H           2.4367   -0.7968    2.1149 H       1  UNL1        0.0870
     22 H           2.7988   -0.5539   -2.1789 H       1  UNL1        0.1064
     23 H          -1.4941    3.7022   -0.2575 H       1  UNL1        0.0638
     24 H          -3.2514    1.5558    0.0204 H       1  UNL1        0.1659
     25 H          -4.4043   -1.0270    0.2861 H       1  UNL1        0.0851
     26 H          -1.5588   -4.0258    0.3628 H       1  UNL1        0.0830
     27 H           0.3420   -2.4452    0.1442 H       1  UNL1        0.0639
@<TRIPOS>BOND
     1     1     2   ar
     2     2     3   ar
     3     3     4    1
     4     4     5   ar
     5     5     6   ar
     6     6     7   ar
     7     7     8   ar
     8     3     9   ar
     9     9    10   ar
    10    10    11   ar
    11    10    12   ar
    12    12    13   ar
    13    13    14   ar
    14    14    15   ar
    15    15    16   ar
    16    16    17   ar
    17    17    18   ar
    18    11     1   ar
    19    18    13   ar
    20     8     4   ar
    21    18     9   ar
    22     1    19    1
    23     2    20    1
    24     5    21    1
    25     8    22    1
    26    11    23    1
    27    12    24    1
    28    14    25    1
    29    16    26    1
    30    17    27    1
