@<TRIPOS>MOLECULE
*****
 26 29 0 0 0
SMALL
GASTEIGER

@<TRIPOS>ATOM
      1 C           1.2235    3.0105    0.8126 C.ar    1  UNL1       -0.0577
      2 C           1.8893    1.7845    0.7758 C.ar    1  UNL1       -0.0531
      3 C           1.2151    0.6092    0.3979 C.ar    1  UNL1       -0.0019
      4 C           1.9122   -0.6463    0.3341 C.ar    1  UNL1        0.0414
      5 C           2.3203   -1.4286   -0.7643 C.ar    1  UNL1        0.0777
      6 N           2.9430   -2.5457   -0.3790 N.ar    1  UNL1       -0.0862
      7 O           2.9634   -2.4931    1.0075 O.2     1  UNL1       -0.3623
      8 C           2.3510   -1.3552    1.4241 C.ar    1  UNL1        0.1319
      9 C          -0.1561    0.6708    0.0610 C.ar    1  UNL1        0.0374
     10 C          -0.7711    1.9200    0.1093 C.ar    1  UNL1        0.1388
     11 C          -0.1285    3.1030    0.4741 C.ar    1  UNL1       -0.0186
     12 O          -2.0786    1.8320   -0.2455 O.2     1  UNL1       -0.4368
     13 C          -2.3369    0.5251   -0.5155 C.ar    1  UNL1        0.2284
     14 N          -3.5531    0.0907   -0.8941 N.ar    1  UNL1       -0.2205
     15 C          -3.6025   -1.2418   -1.1000 C.ar    1  UNL1        0.0314
     16 C          -2.5410   -2.1230   -0.9496 C.ar    1  UNL1       -0.0428
     17 C          -1.2975   -1.6267   -0.5562 C.ar    1  UNL1       -0.0474
     18 C          -1.1852   -0.2418   -0.3342 C.ar    1  UNL1        0.0482
     19 H           1.7642    3.9091    1.1037 H       1  UNL1        0.0619
     20 H           2.9467    1.7499    1.0340 H       1  UNL1        0.0624
     21 H           2.1890   -1.2400   -1.8208 H       1  UNL1        0.0870
     22 H           2.3090   -1.2125    2.4939 H       1  UNL1        0.1064
     23 H          -0.6616    4.0470    0.4937 H       1  UNL1        0.0654
     24 H          -4.5786   -1.6128   -1.4064 H       1  UNL1        0.0831
     25 H          -2.6788   -3.1839   -1.1334 H       1  UNL1        0.0633
     26 H          -0.4574   -2.3004   -0.4228 H       1  UNL1        0.0626
@<TRIPOS>BOND
     1     1     2   ar
     2     2     3   ar
     3     3     4    1
     4     4     5   ar
     5     5     6   ar
     6     6     7   ar
     7     7     8   ar
     8     3     9   ar
     9     9    10   ar
    10    10    11   ar
    11    10    12   ar
    12    12    13   ar
    13    13    14   ar
    14    14    15   ar
    15    15    16   ar
    16    16    17   ar
    17    17    18   ar
    18    11     1   ar
    19    18    13   ar
    20     8     4   ar
    21    18     9   ar
    22     1    19    1
    23     2    20    1
    24     5    21    1
    25     8    22    1
    26    11    23    1
    27    15    24    1
    28    16    25    1
    29    17    26    1
