@<TRIPOS>MOLECULE
*****
 26 29 0 0 0
SMALL
GASTEIGER

@<TRIPOS>ATOM
      1 C          -1.5298    3.0592   -0.1695 C.ar    1  UNL1       -0.0601
      2 C          -2.0617    1.7817   -0.2083 C.ar    1  UNL1       -0.0532
      3 C          -1.2245    0.6593   -0.0941 C.ar    1  UNL1       -0.0045
      4 C          -1.8220   -0.6489   -0.1301 C.ar    1  UNL1        0.0414
      5 C          -2.3156   -1.4737    0.8993 C.ar    1  UNL1        0.0777
      6 N          -2.8098   -2.6208    0.4249 N.ar    1  UNL1       -0.0862
      7 O          -2.6628   -2.5412   -0.9529 O.2     1  UNL1       -0.3623
      8 C          -2.0817   -1.3575   -1.2764 C.ar    1  UNL1        0.1319
      9 C           0.1882    0.7997    0.0670 C.ar    1  UNL1        0.0063
     10 C           0.6831    2.1123    0.1026 C.ar    1  UNL1        0.0225
     11 C          -0.1580    3.2399   -0.0142 C.ar    1  UNL1       -0.0473
     12 S           2.3886    2.1574    0.3014 S.2     1  UNL1       -0.0687
     13 C           2.5056    0.4698    0.3413 C.ar    1  UNL1        0.1093
     14 N           3.7136   -0.1145    0.4912 N.ar    1  UNL1       -0.2478
     15 C           3.6834   -1.4587    0.5065 C.ar    1  UNL1        0.0289
     16 C           2.5446   -2.2284    0.3827 C.ar    1  UNL1       -0.0429
     17 C           1.3189   -1.5833    0.2297 C.ar    1  UNL1       -0.0500
     18 C           1.2759   -0.1669    0.2067 C.ar    1  UNL1        0.0160
     19 H          -2.1821    3.9250   -0.2587 H       1  UNL1        0.0618
     20 H          -3.1366    1.6565   -0.3274 H       1  UNL1        0.0624
     21 H          -2.3321   -1.2965    1.9656 H       1  UNL1        0.0870
     22 H          -1.9249   -1.1856   -2.3312 H       1  UNL1        0.1064
     23 H           0.2601    4.2435    0.0174 H       1  UNL1        0.0629
     24 H           4.6550   -1.9323    0.6275 H       1  UNL1        0.0830
     25 H           2.6031   -3.3115    0.4040 H       1  UNL1        0.0633
     26 H           0.4214   -2.1845    0.1301 H       1  UNL1        0.0625
@<TRIPOS>BOND
     1     1     2   ar
     2     2     3   ar
     3     3     4    1
     4     4     5   ar
     5     5     6   ar
     6     6     7   ar
     7     7     8   ar
     8     3     9   ar
     9     9    10   ar
    10    10    11   ar
    11    10    12   ar
    12    12    13   ar
    13    13    14   ar
    14    14    15   ar
    15    15    16   ar
    16    16    17   ar
    17    17    18   ar
    18    11     1   ar
    19    18    13   ar
    20     8     4   ar
    21    18     9   ar
    22     1    19    1
    23     2    20    1
    24     5    21    1
    25     8    22    1
    26    11    23    1
    27    15    24    1
    28    16    25    1
    29    17    26    1
