@<TRIPOS>MOLECULE
*****
 27 30 0 0 0
SMALL
GASTEIGER

@<TRIPOS>ATOM
      1 C          -1.0469    2.8425    1.3058 C.ar    1  UNL1       -0.0592
      2 C          -1.7376    1.6361    1.2441 C.ar    1  UNL1       -0.0518
      3 C          -1.1487    0.5018    0.6589 C.ar    1  UNL1        0.0106
      4 C          -1.8842   -0.7416    0.5906 C.ar    1  UNL1        0.0787
      5 C          -2.9547   -0.9289   -0.2627 C.ar    1  UNL1        0.0031
      6 S          -3.5968   -2.5058   -0.0497 S.2     1  UNL1       -0.0833
      7 C          -2.4134   -2.8015    1.1566 C.ar    1  UNL1        0.0654
      8 N          -1.5744   -1.8193    1.4008 N.ar    1  UNL1       -0.2474
      9 C           0.1641    0.5806    0.1295 C.ar    1  UNL1        0.0167
     10 C           0.8201    1.8142    0.2088 C.ar    1  UNL1        0.0481
     11 C           0.2442    2.9534    0.7873 C.ar    1  UNL1       -0.0377
     12 N           2.0598    1.6585   -0.3645 N.ar    1  UNL1       -0.3529
     13 C           2.2327    0.3777   -0.8236 C.ar    1  UNL1        0.0658
     14 C           3.3161   -0.2063   -1.4682 C.ar    1  UNL1        0.0514
     15 N           3.2487   -1.5071   -1.8261 N.ar    1  UNL1       -0.2612
     16 C           2.1285   -2.2037   -1.5390 C.ar    1  UNL1        0.0283
     17 C           1.0139   -1.6813   -0.9002 C.ar    1  UNL1       -0.0338
     18 C           1.0677   -0.3283   -0.5268 C.ar    1  UNL1        0.0109
     19 H          -1.5165    3.7085    1.7670 H       1  UNL1        0.0618
     20 H          -2.7392    1.5734    1.6641 H       1  UNL1        0.0624
     21 H          -3.3770   -0.2392   -0.9796 H       1  UNL1        0.0715
     22 H          -2.3636   -3.7467    1.6812 H       1  UNL1        0.0907
     23 H           0.7808    3.8960    0.8382 H       1  UNL1        0.0638
     24 H           2.7491    2.3923   -0.4393 H       1  UNL1        0.1659
     25 H           4.2299    0.3232   -1.7077 H       1  UNL1        0.0851
     26 H           2.1460   -3.2454   -1.8480 H       1  UNL1        0.0830
     27 H           0.1515   -2.3029   -0.6973 H       1  UNL1        0.0639
@<TRIPOS>BOND
     1     1     2   ar
     2     2     3   ar
     3     3     4    1
     4     4     5   ar
     5     5     6   ar
     6     6     7   ar
     7     7     8   ar
     8     3     9   ar
     9     9    10   ar
    10    10    11   ar
    11    10    12   ar
    12    12    13   ar
    13    13    14   ar
    14    14    15   ar
    15    15    16   ar
    16    16    17   ar
    17    17    18   ar
    18    11     1   ar
    19    18    13   ar
    20     8     4   ar
    21    18     9   ar
    22     1    19    1
    23     2    20    1
    24     5    21    1
    25     7    22    1
    26    11    23    1
    27    12    24    1
    28    14    25    1
    29    16    26    1
    30    17    27    1
