@<TRIPOS>MOLECULE
*****
 26 29 0 0 0
SMALL
GASTEIGER

@<TRIPOS>ATOM
      1 C          -1.5534    2.9670   -0.4680 C.ar    1  UNL1       -0.0576
      2 C          -2.0633    1.7650    0.0232 C.ar    1  UNL1       -0.0517
      3 C          -1.2416    0.6304    0.1607 C.ar    1  UNL1        0.0122
      4 C          -1.7885   -0.5882    0.7148 C.ar    1  UNL1        0.0788
      5 C          -1.3632   -1.1342    1.9110 C.ar    1  UNL1        0.0031
      6 S          -2.2705   -2.5488    2.2580 S.2     1  UNL1       -0.0833
      7 C          -3.1708   -2.2978    0.8195 C.ar    1  UNL1        0.0654
      8 N          -2.8416   -1.2447    0.1046 N.ar    1  UNL1       -0.2474
      9 C           0.1111    0.7005   -0.2443 C.ar    1  UNL1        0.0387
     10 C           0.5723    1.9276   -0.7177 C.ar    1  UNL1        0.1389
     11 C          -0.2122    3.0749   -0.8403 C.ar    1  UNL1       -0.0186
     12 O           1.8881    1.8596   -1.0458 O.2     1  UNL1       -0.4368
     13 C           2.2946    0.5828   -0.8205 C.ar    1  UNL1        0.2284
     14 N           3.5547    0.1724   -1.0564 N.ar    1  UNL1       -0.2205
     15 C           3.7470   -1.1365   -0.7928 C.ar    1  UNL1        0.0314
     16 C           2.7816   -2.0174   -0.3265 C.ar    1  UNL1       -0.0428
     17 C           1.4897   -1.5452   -0.0918 C.ar    1  UNL1       -0.0474
     18 C           1.2328   -0.1839   -0.3388 C.ar    1  UNL1        0.0482
     19 H          -2.2073    3.8316   -0.5606 H       1  UNL1        0.0619
     20 H          -3.1127    1.7069    0.3090 H       1  UNL1        0.0624
     21 H          -0.5880   -0.7847    2.5785 H       1  UNL1        0.0715
     22 H          -3.9663   -2.9700    0.5250 H       1  UNL1        0.0907
     23 H           0.2046    4.0004   -1.2211 H       1  UNL1        0.0654
     24 H           4.7594   -1.4880   -0.9813 H       1  UNL1        0.0831
     25 H           3.0289   -3.0598   -0.1530 H       1  UNL1        0.0633
     26 H           0.7145   -2.2200    0.2543 H       1  UNL1        0.0626
@<TRIPOS>BOND
     1     1     2   ar
     2     2     3   ar
     3     3     4    1
     4     4     5   ar
     5     5     6   ar
     6     6     7   ar
     7     7     8   ar
     8     3     9   ar
     9     9    10   ar
    10    10    11   ar
    11    10    12   ar
    12    12    13   ar
    13    13    14   ar
    14    14    15   ar
    15    15    16   ar
    16    16    17   ar
    17    17    18   ar
    18    11     1   ar
    19    18    13   ar
    20     8     4   ar
    21    18     9   ar
    22     1    19    1
    23     2    20    1
    24     5    21    1
    25     7    22    1
    26    11    23    1
    27    15    24    1
    28    16    25    1
    29    17    26    1
