@<TRIPOS>MOLECULE
*****
 45 52 0 0 0
SMALL
GASTEIGER

@<TRIPOS>ATOM
      1 SI         -1.5711    3.8668    1.3855 Si      1  UNL1        0.0000
      2 C          -3.2181    3.0953    0.9810 C.2     1  UNL1        0.0000
      3 C          -3.0802    1.8307    0.5309 C.ar    1  UNL1        0.0000
      4 C          -4.1830    0.9647    0.1258 C.ar    1  UNL1        0.0000
      5 C          -5.6122    1.3043    0.1410 C.2     1  UNL1        0.0000
      6 C          -6.4513    0.3434   -0.2796 C.2     1  UNL1        0.0000
      7 SI         -5.5060   -1.1869   -0.7733 Si      1  UNL1        0.0000
      8 C          -3.9076   -0.2946   -0.3192 C.ar    1  UNL1        0.0000
      9 C          -2.5307   -0.8377   -0.4113 C.ar    1  UNL1        0.0000
     10 C          -2.2260   -2.1575   -0.8757 C.ar    1  UNL1        0.0000
     11 N          -3.0788   -3.1151   -1.3017 N.ar    1  UNL1        0.0000
     12 S          -2.1797   -4.4579   -1.7257 S.2     1  UNL1        0.0000
     13 N          -0.6360   -3.9068   -1.3932 N.ar    1  UNL1        0.0000
     14 C          -0.8647   -2.6786   -0.9558 C.ar    1  UNL1        0.0000
     15 C           0.1865   -1.8219   -0.5495 C.ar    1  UNL1        0.0000
     16 C           1.5615   -2.0511   -0.5124 C.ar    1  UNL1        0.0000
     17 C           2.0895   -0.8660   -0.0319 C.ar    1  UNL1        0.0000
     18 O           1.0789    0.0297    0.2250 O.2     1  UNL1        0.0000
     19 C          -0.1167   -0.5596   -0.1053 C.ar    1  UNL1        0.0000
     20 C          -1.4136   -0.0233   -0.0184 C.ar    1  UNL1        0.0000
     21 C          -1.6750    1.3515    0.4645 C.ar    1  UNL1        0.0000
     22 C          -0.7662    2.2665    0.8638 C.2     1  UNL1        0.0000
     23 C           3.4203   -0.3883    0.2741 C.ar    1  UNL1        0.0000
     24 C           3.7042    0.4460    1.3865 C.ar    1  UNL1        0.0000
     25 C           5.0132    0.9115    1.7322 C.ar    1  UNL1        0.0000
     26 C           6.1762    0.5970    1.0007 C.ar    1  UNL1        0.0000
     27 C           5.8967   -0.2107   -0.1018 C.ar    1  UNL1        0.0000
     28 C           6.8790   -0.6254   -0.9667 C.ar    1  UNL1        0.0000
     29 S           6.2264   -1.5762   -2.2380 S.2     1  UNL1        0.0000
     30 C           4.6243   -1.4258   -1.6279 C.ar    1  UNL1        0.0000
     31 C           4.5798   -0.6913   -0.4646 C.ar    1  UNL1        0.0000
     32 H          -1.2366    4.9950    0.4837 H       1  UNL1        0.0000
     33 H          -1.4120    4.1364    2.8349 H       1  UNL1        0.0000
     34 H          -4.1308    3.6529    1.1120 H       1  UNL1        0.0000
     35 H          -5.9546    2.2757    0.4741 H       1  UNL1        0.0000
     36 H          -7.5262    0.4006   -0.3416 H       1  UNL1        0.0000
     37 H          -5.8296   -2.3179    0.1330 H       1  UNL1        0.0000
     38 H          -5.6474   -1.4435   -2.2290 H       1  UNL1        0.0000
     39 H           2.1031   -2.9480   -0.7772 H       1  UNL1        0.0000
     40 H           0.3059    2.1734    0.9050 H       1  UNL1        0.0000
     41 H           2.8779    0.7489    2.0322 H       1  UNL1        0.0000
     42 H           5.1125    1.5447    2.6147 H       1  UNL1        0.0000
     43 H           7.1573    0.9600    1.2775 H       1  UNL1        0.0000
     44 H           7.9407   -0.4223   -0.9361 H       1  UNL1        0.0000
     45 H           3.8202   -1.8886   -2.1807 H       1  UNL1        0.0000
@<TRIPOS>BOND
     1     1     2    1
     2     2     3    2
     3     3     4   ar
     4     4     5    1
     5     5     6    2
     6     6     7    1
     7     7     8    1
     8     8     9   ar
     9     9    10   ar
    10    10    11   ar
    11    11    12   ar
    12    12    13   ar
    13    13    14   ar
    14    14    15   ar
    15    15    16   ar
    16    16    17   ar
    17    17    18   ar
    18    18    19   ar
    19    19    20   ar
    20    20    21   ar
    21    21    22    2
    22    17    23    1
    23    23    24   ar
    24    24    25   ar
    25    25    26   ar
    26    26    27   ar
    27    27    28   ar
    28    28    29   ar
    29    29    30   ar
    30    30    31   ar
    31    22     1    1
    32    31    23   ar
    33    21     3   ar
    34    31    27   ar
    35     8     4   ar
    36    20     9   ar
    37    14    10   ar
    38    19    15   ar
    39     1    32    1
    40     1    33    1
    41     2    34    1
    42     5    35    1
    43     6    36    1
    44     7    37    1
    45     7    38    1
    46    16    39    1
    47    22    40    1
    48    24    41    1
    49    25    42    1
    50    26    43    1
    51    28    44    1
    52    30    45    1
