@<TRIPOS>MOLECULE
*****
 26 29 0 0 0
SMALL
GASTEIGER

@<TRIPOS>ATOM
      1 C          -2.0551    2.7759   -0.3107 C.ar    1  UNL1       -0.0601
      2 C          -2.3356    1.4543   -0.0083 C.ar    1  UNL1       -0.0519
      3 C          -1.3022    0.5039    0.0582 C.ar    1  UNL1        0.0097
      4 C          -1.6463   -0.8695    0.3537 C.ar    1  UNL1        0.0787
      5 C          -2.0871   -1.7532   -0.6125 C.ar    1  UNL1        0.0031
      6 S          -2.4414   -3.2688    0.1108 S.2     1  UNL1       -0.0833
      7 C          -1.9946   -2.6219    1.6361 C.ar    1  UNL1        0.0654
      8 N          -1.5924   -1.3699    1.6409 N.ar    1  UNL1       -0.2474
      9 C           0.0587    0.8724   -0.1659 C.ar    1  UNL1        0.0076
     10 C           0.2965    2.2193   -0.4789 C.ar    1  UNL1        0.0226
     11 C          -0.7426    3.1722   -0.5537 C.ar    1  UNL1       -0.0473
     12 S           1.9628    2.5367   -0.7526 S.2     1  UNL1       -0.0687
     13 C           2.3966    0.9284   -0.4542 C.ar    1  UNL1        0.1093
     14 N           3.6928    0.5569   -0.5327 N.ar    1  UNL1       -0.2478
     15 C           3.9151   -0.7419   -0.2623 C.ar    1  UNL1        0.0289
     16 C           2.9421   -1.6627    0.0706 C.ar    1  UNL1       -0.0429
     17 C           1.6178   -1.2354    0.1349 C.ar    1  UNL1       -0.0500
     18 C           1.3095    0.1193   -0.1411 C.ar    1  UNL1        0.0160
     19 H          -2.8586    3.5070   -0.3582 H       1  UNL1        0.0618
     20 H          -3.3642    1.1557    0.1847 H       1  UNL1        0.0624
     21 H          -2.2169   -1.5887   -1.6729 H       1  UNL1        0.0715
     22 H          -2.0408   -3.2170    2.5390 H       1  UNL1        0.0907
     23 H          -0.5212    4.2094   -0.7940 H       1  UNL1        0.0629
     24 H           4.9583   -1.0436   -0.3204 H       1  UNL1        0.0830
     25 H           3.2040   -2.6937    0.2815 H       1  UNL1        0.0633
     26 H           0.8448   -1.9453    0.4079 H       1  UNL1        0.0625
@<TRIPOS>BOND
     1     1     2   ar
     2     2     3   ar
     3     3     4    1
     4     4     5   ar
     5     5     6   ar
     6     6     7   ar
     7     7     8   ar
     8     3     9   ar
     9     9    10   ar
    10    10    11   ar
    11    10    12   ar
    12    12    13   ar
    13    13    14   ar
    14    14    15   ar
    15    15    16   ar
    16    16    17   ar
    17    17    18   ar
    18    11     1   ar
    19    18    13   ar
    20     8     4   ar
    21    18     9   ar
    22     1    19    1
    23     2    20    1
    24     5    21    1
    25     7    22    1
    26    11    23    1
    27    15    24    1
    28    16    25    1
    29    17    26    1
