@<TRIPOS>MOLECULE
*****
 26 29 0 0 0
SMALL
GASTEIGER

@<TRIPOS>ATOM
      1 C           0.4709   -3.2710    0.1397 C.ar    1  UNL1       -0.0591
      2 C           1.4746   -2.3102    0.1945 C.ar    1  UNL1       -0.0502
      3 C           1.1716   -0.9346    0.1326 C.ar    1  UNL1        0.0322
      4 C           2.2517    0.0332    0.1526 C.ar    1  UNL1        0.2025
      5 N           2.3684    1.0453   -0.7759 N.ar    1  UNL1       -0.1941
      6 C           3.5026    1.6031   -0.4379 C.ar    1  UNL1        0.2147
      7 O           4.1067    1.0209    0.6258 O.2     1  UNL1       -0.3411
      8 N           3.2830   -0.0348    1.0138 N.ar    1  UNL1       -0.0564
      9 C          -0.1845   -0.5209    0.0397 C.ar    1  UNL1        0.0183
     10 C          -1.1605   -1.5247   -0.0211 C.ar    1  UNL1        0.0482
     11 C          -0.8650   -2.8936    0.0224 C.ar    1  UNL1       -0.0377
     12 N          -2.3844   -0.9087   -0.1258 N.ar    1  UNL1       -0.3529
     13 C          -2.2535    0.4548   -0.0955 C.ar    1  UNL1        0.0658
     14 C          -3.2250    1.4467   -0.1510 C.ar    1  UNL1        0.0514
     15 N          -2.8511    2.7422   -0.0874 N.ar    1  UNL1       -0.2612
     16 C          -1.5393    3.0331    0.0319 C.ar    1  UNL1        0.0283
     17 C          -0.5223    2.0913    0.0924 C.ar    1  UNL1       -0.0338
     18 C          -0.8920    0.7376    0.0162 C.ar    1  UNL1        0.0110
     19 H           0.7315   -4.3261    0.1831 H       1  UNL1        0.0618
     20 H           2.5113   -2.6338    0.2752 H       1  UNL1        0.0625
     21 H           4.0065    2.4457   -0.8862 H       1  UNL1        0.1283
     22 H          -1.6483   -3.6443   -0.0255 H       1  UNL1        0.0638
     23 H          -3.2645   -1.3988   -0.1942 H       1  UNL1        0.1659
     24 H          -4.2854    1.2448   -0.2397 H       1  UNL1        0.0851
     25 H          -1.3091    4.0940    0.0827 H       1  UNL1        0.0830
     26 H           0.5061    2.4088    0.1974 H       1  UNL1        0.0639
@<TRIPOS>BOND
     1     1     2   ar
     2     2     3   ar
     3     3     4    1
     4     4     5   ar
     5     5     6   ar
     6     6     7   ar
     7     7     8   ar
     8     3     9   ar
     9     9    10   ar
    10    10    11   ar
    11    10    12   ar
    12    12    13   ar
    13    13    14   ar
    14    14    15   ar
    15    15    16   ar
    16    16    17   ar
    17    17    18   ar
    18    11     1   ar
    19    18    13   ar
    20     8     4   ar
    21    18     9   ar
    22     1    19    1
    23     2    20    1
    24     6    21    1
    25    11    22    1
    26    12    23    1
    27    14    24    1
    28    16    25    1
    29    17    26    1
