@<TRIPOS>MOLECULE
*****
 25 28 0 0 0
SMALL
GASTEIGER

@<TRIPOS>ATOM
      1 C          -1.2526    3.0497    0.4606 C.ar    1  UNL1       -0.0576
      2 C          -1.9401    1.8502    0.2812 C.ar    1  UNL1       -0.0501
      3 C          -1.2568    0.6341    0.0582 C.ar    1  UNL1        0.0338
      4 C          -2.0222   -0.5785   -0.1569 C.ar    1  UNL1        0.2025
      5 N          -3.1838   -0.8334    0.5434 N.ar    1  UNL1       -0.1941
      6 C          -3.5787   -1.9671    0.0235 C.ar    1  UNL1        0.2147
      7 O          -2.7686   -2.4326   -0.9580 O.2     1  UNL1       -0.3411
      8 N          -1.7412   -1.5000   -1.0925 N.ar    1  UNL1       -0.0564
      9 C           0.1603    0.6340    0.0509 C.ar    1  UNL1        0.0403
     10 C           0.7953    1.8638    0.2293 C.ar    1  UNL1        0.1389
     11 C           0.1400    3.0793    0.4287 C.ar    1  UNL1       -0.0186
     12 O           2.1444    1.7307    0.1900 O.2     1  UNL1       -0.4368
     13 C           2.4155    0.4131    0.0118 C.ar    1  UNL1        0.2284
     14 N           3.6745   -0.0587   -0.0566 N.ar    1  UNL1       -0.2205
     15 C           3.7353   -1.3960   -0.2151 C.ar    1  UNL1        0.0314
     16 C           2.6447   -2.2479   -0.2975 C.ar    1  UNL1       -0.0428
     17 C           1.3585   -1.7115   -0.2199 C.ar    1  UNL1       -0.0474
     18 C           1.2286   -0.3179   -0.0680 C.ar    1  UNL1        0.0483
     19 H          -1.8070    3.9716    0.6231 H       1  UNL1        0.0619
     20 H          -3.0297    1.8593    0.3044 H       1  UNL1        0.0625
     21 H          -4.4457   -2.5624    0.2665 H       1  UNL1        0.1283
     22 H           0.6973    3.9996    0.5629 H       1  UNL1        0.0654
     23 H           4.7452   -1.7961   -0.2753 H       1  UNL1        0.0831
     24 H           2.7902   -3.3163   -0.4204 H       1  UNL1        0.0633
     25 H           0.4966   -2.3669   -0.2746 H       1  UNL1        0.0626
@<TRIPOS>BOND
     1     1     2   ar
     2     2     3   ar
     3     3     4    1
     4     4     5   ar
     5     5     6   ar
     6     6     7   ar
     7     7     8   ar
     8     3     9   ar
     9     9    10   ar
    10    10    11   ar
    11    10    12   ar
    12    12    13   ar
    13    13    14   ar
    14    14    15   ar
    15    15    16   ar
    16    16    17   ar
    17    17    18   ar
    18    11     1   ar
    19    18    13   ar
    20     8     4   ar
    21    18     9   ar
    22     1    19    1
    23     2    20    1
    24     6    21    1
    25    11    22    1
    26    15    23    1
    27    16    24    1
    28    17    25    1
