@<TRIPOS>MOLECULE
*****
 25 28 0 0 0
SMALL
GASTEIGER

@<TRIPOS>ATOM
      1 C          -2.6558   -2.1638    0.1576 C.ar    1  UNL1       -0.0600
      2 C          -2.6257   -0.7802    0.1570 C.ar    1  UNL1       -0.0503
      3 C          -1.4061   -0.0866    0.0375 C.ar    1  UNL1        0.0313
      4 C          -1.4506    1.3603   -0.0080 C.ar    1  UNL1        0.2024
      5 N          -2.0350    2.1014    0.9957 N.ar    1  UNL1       -0.1941
      6 C          -1.9254    3.3216    0.5359 C.ar    1  UNL1        0.2147
      7 O          -1.3350    3.3999   -0.6822 O.2     1  UNL1       -0.3411
      8 N          -1.0341    2.0896   -1.0565 N.ar    1  UNL1       -0.0564
      9 C          -0.1643   -0.7901   -0.0473 C.ar    1  UNL1        0.0092
     10 C          -0.2441   -2.1920   -0.0592 C.ar    1  UNL1        0.0226
     11 C          -1.4714   -2.8831    0.0383 C.ar    1  UNL1       -0.0473
     12 S           1.2990   -2.9317   -0.2082 S.2     1  UNL1       -0.0687
     13 C           2.0981   -1.4412   -0.2018 C.ar    1  UNL1        0.1093
     14 N           3.4458   -1.4054   -0.2816 N.ar    1  UNL1       -0.2478
     15 C           3.9725   -0.1691   -0.2449 C.ar    1  UNL1        0.0289
     16 C           3.2472    0.9987   -0.1279 C.ar    1  UNL1       -0.0429
     17 C           1.8586    0.9135   -0.0482 C.ar    1  UNL1       -0.0500
     18 C           1.2323   -0.3568   -0.0974 C.ar    1  UNL1        0.0160
     19 H          -3.6037   -2.6898    0.2421 H       1  UNL1        0.0618
     20 H          -3.5597   -0.2261    0.2380 H       1  UNL1        0.0625
     21 H          -2.2394    4.2501    0.9879 H       1  UNL1        0.1283
     22 H          -1.4923   -3.9705    0.0284 H       1  UNL1        0.0629
     23 H           5.0574   -0.1368   -0.3117 H       1  UNL1        0.0830
     24 H           3.7472    1.9607   -0.0986 H       1  UNL1        0.0633
     25 H           1.2843    1.8275    0.0550 H       1  UNL1        0.0625
@<TRIPOS>BOND
     1     1     2   ar
     2     2     3   ar
     3     3     4    1
     4     4     5   ar
     5     5     6   ar
     6     6     7   ar
     7     7     8   ar
     8     3     9   ar
     9     9    10   ar
    10    10    11   ar
    11    10    12   ar
    12    12    13   ar
    13    13    14   ar
    14    14    15   ar
    15    15    16   ar
    16    16    17   ar
    17    17    18   ar
    18    11     1   ar
    19    18    13   ar
    20     8     4   ar
    21    18     9   ar
    22     1    19    1
    23     2    20    1
    24     6    21    1
    25    11    22    1
    26    15    23    1
    27    16    24    1
    28    17    25    1
