@<TRIPOS>MOLECULE
*****
 25 27 0 0 0
SMALL
GASTEIGER

@<TRIPOS>ATOM
      1 C          -4.7460   -0.5036    0.4322 C.ar    1  UNL1        0.0283
      2 C          -3.4645   -1.0013    0.5946 C.ar    1  UNL1       -0.0313
      3 C          -2.3845   -0.2406    0.1364 C.ar    1  UNL1        0.0413
      4 C          -1.0290   -0.7461    0.2976 C.ar    1  UNL1        0.2488
      5 N          -0.6047   -1.8716    0.8356 N.ar    1  UNL1       -0.1070
      6 N           0.7712   -1.8606    0.7350 N.ar    1  UNL1       -0.1070
      7 C           1.0949   -0.7291    0.1422 C.ar    1  UNL1        0.2488
      8 C           2.4042   -0.2024   -0.2139 C.ar    1  UNL1        0.0413
      9 C           3.5514   -0.9454    0.0814 C.ar    1  UNL1       -0.0313
     10 C           4.7875   -0.4275   -0.2651 C.ar    1  UNL1        0.0283
     11 N           4.9537    0.7630   -0.8768 N.ar    1  UNL1       -0.2632
     12 C           3.8377    1.4673   -1.1547 C.ar    1  UNL1        0.0283
     13 C           2.5585    1.0340   -0.8478 C.ar    1  UNL1       -0.0313
     14 O          -0.0016    0.0348   -0.1671 O.2     1  UNL1       -0.4158
     15 C          -2.6489    0.9924   -0.4669 C.ar    1  UNL1       -0.0313
     16 C          -3.9659    1.4050   -0.5838 C.ar    1  UNL1        0.0283
     17 N          -5.0182    0.6835   -0.1474 N.ar    1  UNL1       -0.2632
     18 H          -5.6122   -1.0632    0.7742 H       1  UNL1        0.0830
     19 H          -3.3151   -1.9662    1.0707 H       1  UNL1        0.0640
     20 H           3.4882   -1.9119    0.5731 H       1  UNL1        0.0640
     21 H           5.7031   -0.9730   -0.0534 H       1  UNL1        0.0830
     22 H           4.0038    2.4215   -1.6472 H       1  UNL1        0.0830
     23 H           1.7077    1.6566   -1.1029 H       1  UNL1        0.0640
     24 H          -1.8543    1.6283   -0.8423 H       1  UNL1        0.0640
     25 H          -4.2170    2.3559   -1.0459 H       1  UNL1        0.0830
@<TRIPOS>BOND
     1     1     2   ar
     2     2     3   ar
     3     3     4    1
     4     4     5   ar
     5     5     6   ar
     6     6     7   ar
     7     7     8    1
     8     8     9   ar
     9     9    10   ar
    10    10    11   ar
    11    11    12   ar
    12    12    13   ar
    13     7    14   ar
    14     3    15   ar
    15    15    16   ar
    16    16    17   ar
    17    17     1   ar
    18    14     4   ar
    19    13     8   ar
    20     1    18    1
    21     2    19    1
    22     9    20    1
    23    10    21    1
    24    12    22    1
    25    13    23    1
    26    15    24    1
    27    16    25    1
