@<TRIPOS>MOLECULE
*****
 35 39 0 0 0
SMALL
GASTEIGER

@<TRIPOS>ATOM
      1 C          -1.3006   -2.1807   -0.6183 C.ar    1  UNL1       -0.0147
      2 C          -2.7037   -1.9838   -0.5914 C.ar    1  UNL1       -0.0152
      3 C          -2.9074   -0.6570   -0.2803 C.ar    1  UNL1        0.1372
      4 O          -1.6990   -0.0450   -0.1184 O.2     1  UNL1       -0.4542
      5 C          -0.7000   -0.9674   -0.3228 C.ar    1  UNL1        0.1444
      6 C           0.6977   -0.6295   -0.2232 C.ar    1  UNL1        0.0825
      7 S           1.1683    0.9768    0.1638 S.2     1  UNL1       -0.0803
      8 C           2.8604    0.6372    0.1070 C.ar    1  UNL1        0.0555
      9 C           3.8598    1.6591    0.3630 C.ar    1  UNL1        0.0475
     10 C           5.2423    1.5361    0.3534 C.ar    1  UNL1        0.0430
     11 N           5.9730    2.6787    0.6342 N.ar    1  UNL1       -0.2551
     12 C           5.1440    3.6704    0.8571 C.ar    1  UNL1        0.0653
     13 S           3.4791    3.3016    0.7463 S.2     1  UNL1       -0.0749
     14 C           3.0511   -0.6971   -0.2062 C.ar    1  UNL1        0.1052
     15 N           4.2831   -1.2780   -0.3265 N.ar    1  UNL1       -0.2507
     16 C           4.1902   -2.5958   -0.6398 C.ar    1  UNL1        0.0464
     17 C           2.9953   -3.2931   -0.8216 C.ar    1  UNL1        0.0464
     18 N           1.7543   -2.7538   -0.7113 N.ar    1  UNL1       -0.2507
     19 C           1.8095   -1.4242   -0.3957 C.ar    1  UNL1        0.1075
     20 C          -4.0836    0.1838   -0.0978 C.ar    1  UNL1        0.0353
     21 C          -3.9857    1.5417    0.2251 C.ar    1  UNL1       -0.0482
     22 C          -5.1377    2.3100    0.3908 C.ar    1  UNL1       -0.0429
     23 C          -6.3668    1.6951    0.2279 C.ar    1  UNL1        0.0276
     24 N          -6.5133    0.3907   -0.0830 N.ar    1  UNL1       -0.2626
     25 C          -5.3722   -0.3282   -0.2371 C.ar    1  UNL1        0.0382
     26 H          -0.7863   -3.1081   -0.8306 H       1  UNL1        0.0656
     27 H          -3.4647   -2.7282   -0.7783 H       1  UNL1        0.0656
     28 H           5.7900    0.6248    0.1455 H       1  UNL1        0.0841
     29 H           5.4891    4.6674    1.0979 H       1  UNL1        0.0907
     30 H           5.1424   -3.1082   -0.7478 H       1  UNL1        0.0845
     31 H           3.0141   -4.3504   -1.0717 H       1  UNL1        0.0845
     32 H          -3.0131    2.0123    0.3502 H       1  UNL1        0.0626
     33 H          -5.0737    3.3630    0.6410 H       1  UNL1        0.0633
     34 H          -7.2922    2.2513    0.3465 H       1  UNL1        0.0829
     35 H          -5.5437   -1.3716   -0.4866 H       1  UNL1        0.0837
@<TRIPOS>BOND
     1     1     2   ar
     2     2     3   ar
     3     3     4   ar
     4     4     5   ar
     5     5     6    1
     6     6     7   ar
     7     7     8   ar
     8     8     9    1
     9     9    10   ar
    10    10    11   ar
    11    11    12   ar
    12    12    13   ar
    13     8    14   ar
    14    14    15   ar
    15    15    16   ar
    16    16    17   ar
    17    17    18   ar
    18    18    19   ar
    19     3    20    1
    20    20    21   ar
    21    21    22   ar
    22    22    23   ar
    23    23    24   ar
    24    24    25   ar
    25     5     1   ar
    26    19     6   ar
    27    25    20   ar
    28    13     9   ar
    29    19    14   ar
    30     1    26    1
    31     2    27    1
    32    10    28    1
    33    12    29    1
    34    16    30    1
    35    17    31    1
    36    21    32    1
    37    22    33    1
    38    23    34    1
    39    25    35    1
