@<TRIPOS>MOLECULE
*****
 43 48 0 0 0
SMALL
GASTEIGER

@<TRIPOS>ATOM
      1 C           1.1011    1.1984   -0.0706 C.ar    1  UNL1       -0.0458
      2 C           2.5227    1.1387    0.0283 C.ar    1  UNL1       -0.0463
      3 C           2.9761   -0.1221    0.3557 C.ar    1  UNL1        0.0206
      4 S           1.6721   -1.2114    0.5501 S.2     1  UNL1       -0.0877
      5 C           0.4891   -0.0174    0.1842 C.ar    1  UNL1        0.0265
      6 C          -0.9283   -0.3272    0.1717 C.ar    1  UNL1        0.0265
      7 C          -1.5461   -1.5251    0.4921 C.ar    1  UNL1       -0.0458
      8 C          -2.9668   -1.4722    0.3706 C.ar    1  UNL1       -0.0463
      9 C          -3.4065   -0.2319   -0.0340 C.ar    1  UNL1        0.0205
     10 S          -2.1049    0.8448   -0.2819 S.2     1  UNL1       -0.0877
     11 C          -4.7630    0.2128   -0.2816 C.ar    1  UNL1       -0.0031
     12 C          -5.4710   -0.0695   -1.4731 C.ar    1  UNL1       -0.0529
     13 C          -6.8130    0.3653   -1.7212 C.ar    1  UNL1       -0.0606
     14 C          -7.5802    1.1204   -0.8065 C.ar    1  UNL1       -0.0535
     15 C          -6.8784    1.3870    0.3703 C.ar    1  UNL1       -0.0103
     16 C          -7.4246    2.0984    1.4099 C.ar    1  UNL1       -0.0166
     17 S          -6.3177    2.2383    2.7168 S.2     1  UNL1       -0.1039
     18 C          -5.1026    1.3501    1.8839 C.ar    1  UNL1       -0.0160
     19 C          -5.5265    0.9548    0.6358 C.ar    1  UNL1       -0.0027
     20 C           4.3397   -0.5854    0.5401 C.ar    1  UNL1       -0.0022
     21 C           4.8273   -1.2421    1.6999 C.ar    1  UNL1       -0.0529
     22 C           6.1890   -1.6800    1.8680 C.ar    1  UNL1       -0.0605
     23 C           7.2046   -1.5095    0.8989 C.ar    1  UNL1       -0.0526
     24 C           6.7037   -0.8689   -0.2271 C.ar    1  UNL1        0.0000
     25 C           7.4152   -0.5625   -1.3576 C.ar    1  UNL1        0.0094
     26 N           6.5373    0.0467   -2.2285 N.ar    1  UNL1       -0.3659
     27 C           5.2816    0.1317   -1.6633 C.ar    1  UNL1        0.0100
     28 C           5.3571   -0.4257   -0.4087 C.ar    1  UNL1        0.0076
     29 H           0.5635    2.1046   -0.3205 H       1  UNL1        0.0629
     30 H           3.1804    1.9846   -0.1314 H       1  UNL1        0.0629
     31 H          -1.0117   -2.4140    0.8040 H       1  UNL1        0.0629
     32 H          -3.6294   -2.3046    0.5755 H       1  UNL1        0.0629
     33 H          -4.9716   -0.6455   -2.2532 H       1  UNL1        0.0624
     34 H          -7.2677    0.0946   -2.6753 H       1  UNL1        0.0618
     35 H          -8.5928    1.4389   -1.0152 H       1  UNL1        0.0624
     36 H          -8.4074    2.5421    1.4869 H       1  UNL1        0.0699
     37 H          -4.1495    1.1768    2.3653 H       1  UNL1        0.0700
     38 H           4.1391   -1.4237    2.5262 H       1  UNL1        0.0624
     39 H           6.4503   -2.1722    2.8055 H       1  UNL1        0.0618
     40 H           8.2223   -1.8450    1.0347 H       1  UNL1        0.0624
     41 H           8.4478   -0.7218   -1.6345 H       1  UNL1        0.0813
     42 H           6.7767    0.3767   -3.1543 H       1  UNL1        0.1648
     43 H           4.4631    0.5721   -2.2165 H       1  UNL1        0.0813
@<TRIPOS>BOND
     1     1     2   ar
     2     2     3   ar
     3     3     4   ar
     4     4     5   ar
     5     5     6    1
     6     6     7   ar
     7     7     8   ar
     8     8     9   ar
     9     9    10   ar
    10     9    11    1
    11    11    12   ar
    12    12    13   ar
    13    13    14   ar
    14    14    15   ar
    15    15    16   ar
    16    16    17   ar
    17    17    18   ar
    18    18    19   ar
    19     3    20    1
    20    20    21   ar
    21    21    22   ar
    22    22    23   ar
    23    23    24   ar
    24    24    25   ar
    25    25    26   ar
    26    26    27   ar
    27    27    28   ar
    28     5     1   ar
    29    10     6   ar
    30    19    11   ar
    31    28    20   ar
    32    19    15   ar
    33    28    24   ar
    34     1    29    1
    35     2    30    1
    36     7    31    1
    37     8    32    1
    38    12    33    1
    39    13    34    1
    40    14    35    1
    41    16    36    1
    42    18    37    1
    43    21    38    1
    44    22    39    1
    45    23    40    1
    46    25    41    1
    47    26    42    1
    48    27    43    1
