@<TRIPOS>MOLECULE
*****
 41 46 0 0 0
SMALL
GASTEIGER

@<TRIPOS>ATOM
      1 C          -0.5119   -1.3266    1.7963 C.ar    1  UNL1       -0.0443
      2 C          -1.9026   -1.0159    1.8021 C.ar    1  UNL1       -0.0463
      3 C          -2.1967    0.0496    0.9785 C.ar    1  UNL1        0.0206
      4 S          -0.7944    0.6635    0.2173 S.2     1  UNL1       -0.0862
      5 C           0.2262   -0.4923    0.9728 C.ar    1  UNL1        0.0449
      6 C           1.6557   -0.5665    0.7646 C.ar    1  UNL1        0.1154
      7 N           2.3830   -1.4819    1.3727 N.ar    1  UNL1       -0.2461
      8 C           3.7118   -1.3472    1.0128 C.ar    1  UNL1        0.0448
      9 C           4.0112   -0.3275    0.1265 C.ar    1  UNL1        0.0597
     10 S           2.5415    0.4879   -0.2599 S.2     1  UNL1       -0.0651
     11 C           5.2772    0.0988   -0.4589 C.ar    1  UNL1        0.1071
     12 N           5.2926    1.2210   -1.2526 N.ar    1  UNL1       -0.2521
     13 C           6.4456    1.6769   -1.8320 C.ar    1  UNL1        0.0305
     14 C           7.7145    1.1221   -1.7252 C.ar    1  UNL1       -0.0153
     15 C           7.7541   -0.0319   -0.9216 C.ar    1  UNL1        0.1034
     16 N           8.8558   -0.7529   -0.6610 N.ar    1  UNL1       -0.1907
     17 S           8.3831   -2.0017    0.3216 S.2     1  UNL1        0.1165
     18 N           6.7619   -1.6849    0.4627 N.ar    1  UNL1       -0.1886
     19 C           6.5108   -0.5765   -0.2596 C.ar    1  UNL1        0.1263
     20 C          -3.4986    0.6682    0.7109 C.ar    1  UNL1       -0.0036
     21 C          -3.8318    1.8306    1.4262 C.ar    1  UNL1       -0.0529
     22 C          -5.0594    2.4543    1.2324 C.ar    1  UNL1       -0.0606
     23 C          -5.9700    1.9213    0.3237 C.ar    1  UNL1       -0.0540
     24 C          -5.6689    0.7602   -0.4050 C.ar    1  UNL1       -0.0173
     25 C          -6.6021    0.2385   -1.3166 C.ar    1  UNL1       -0.0540
     26 C          -6.3228   -0.9120   -2.0526 C.ar    1  UNL1       -0.0612
     27 C          -5.1045   -1.5568   -1.8880 C.ar    1  UNL1       -0.0611
     28 C          -4.1661   -1.0514   -0.9856 C.ar    1  UNL1       -0.0534
     29 C          -4.4204    0.1131   -0.2210 C.ar    1  UNL1       -0.0097
     30 H          -0.0644   -2.1294    2.3719 H       1  UNL1        0.0630
     31 H          -2.6487   -1.5490    2.3794 H       1  UNL1        0.0629
     32 H           4.4250   -2.0393    1.4443 H       1  UNL1        0.0842
     33 H           6.3036    2.5753   -2.4333 H       1  UNL1        0.0830
     34 H           8.5869    1.5345   -2.2112 H       1  UNL1        0.0655
     35 H          -3.1288    2.2529    2.1416 H       1  UNL1        0.0624
     36 H          -5.3075    3.3542    1.7889 H       1  UNL1        0.0618
     37 H          -6.9255    2.4238    0.1866 H       1  UNL1        0.0624
     38 H          -7.5619    0.7300   -1.4624 H       1  UNL1        0.0624
     39 H          -7.0558   -1.3008   -2.7542 H       1  UNL1        0.0618
     40 H          -4.8781   -2.4522   -2.4609 H       1  UNL1        0.0618
     41 H          -3.2200   -1.5800   -0.8877 H       1  UNL1        0.0624
@<TRIPOS>BOND
     1     1     2   ar
     2     2     3   ar
     3     3     4   ar
     4     4     5   ar
     5     5     6    1
     6     6     7   ar
     7     7     8   ar
     8     8     9   ar
     9     9    10   ar
    10     9    11    1
    11    11    12   ar
    12    12    13   ar
    13    13    14   ar
    14    14    15   ar
    15    15    16   ar
    16    16    17   ar
    17    17    18   ar
    18    18    19   ar
    19     3    20    1
    20    20    21   ar
    21    21    22   ar
    22    22    23   ar
    23    23    24   ar
    24    24    25   ar
    25    25    26   ar
    26    26    27   ar
    27    27    28   ar
    28    28    29   ar
    29     5     1   ar
    30    10     6   ar
    31    19    11   ar
    32    29    20   ar
    33    19    15   ar
    34    29    24   ar
    35     1    30    1
    36     2    31    1
    37     8    32    1
    38    13    33    1
    39    14    34    1
    40    21    35    1
    41    22    36    1
    42    23    37    1
    43    25    38    1
    44    26    39    1
    45    27    40    1
    46    28    41    1
