@<TRIPOS>MOLECULE
*****
 45 51 0 0 0
SMALL
GASTEIGER

@<TRIPOS>ATOM
      1 C           3.5861   -1.2434   -0.2539 C.ar    1  UNL1       -0.0458
      2 C           2.1948   -1.5015   -0.0782 C.ar    1  UNL1       -0.0463
      3 C           1.4365   -0.3476   -0.0571 C.ar    1  UNL1        0.0220
      4 S           2.4368    1.0337   -0.2405 S.2     1  UNL1       -0.0876
      5 C           3.8755    0.1037   -0.3669 C.ar    1  UNL1        0.0286
      6 C           5.1831    0.7043   -0.5465 C.ar    1  UNL1        0.0533
      7 S           5.3884    2.2109   -1.3795 S.2     1  UNL1       -0.0918
      8 C           7.0880    2.2055   -1.1857 C.ar    1  UNL1        0.0038
      9 C           7.5067    1.0897   -0.5125 C.ar    1  UNL1        0.0968
     10 N           8.8181    0.8514   -0.2320 N.ar    1  UNL1       -0.2514
     11 C           8.9603   -0.3187    0.4468 C.ar    1  UNL1        0.0464
     12 C           7.9115   -1.1709    0.8094 C.ar    1  UNL1        0.0464
     13 N           6.5960   -0.9564    0.5367 N.ar    1  UNL1       -0.2508
     14 C           6.4148    0.2162   -0.1442 C.ar    1  UNL1        0.1044
     15 C          -0.0097   -0.1902    0.1049 C.ar    1  UNL1        0.0169
     16 C          -0.7854    0.6999   -0.6683 C.ar    1  UNL1       -0.0508
     17 C          -2.1838    0.8483   -0.5181 C.ar    1  UNL1       -0.0512
     18 C          -2.9598    0.1220    0.4141 C.ar    1  UNL1        0.0110
     19 C          -4.3951    0.2977    0.5524 C.ar    1  UNL1       -0.0066
     20 C          -5.0581    0.6666    1.7566 C.ar    1  UNL1       -0.0533
     21 C          -6.4797    0.8634    1.8846 C.ar    1  UNL1       -0.0605
     22 C          -7.3999    0.7124    0.8245 C.ar    1  UNL1       -0.0526
     23 C          -6.7404    0.3453   -0.3397 C.ar    1  UNL1       -0.0000
     24 C          -7.3349    0.0990   -1.5499 C.ar    1  UNL1        0.0094
     25 N          -6.3296   -0.2557   -2.4235 N.ar    1  UNL1       -0.3659
     26 C          -5.1075   -0.2344   -1.7821 C.ar    1  UNL1        0.0100
     27 C          -5.3318    0.1486   -0.4805 C.ar    1  UNL1        0.0072
     28 C          -2.2299   -0.7924    1.2319 C.ar    1  UNL1        0.1082
     29 N          -2.7348   -1.5888    2.1923 N.ar    1  UNL1       -0.1901
     30 S          -1.4741   -2.4466    2.8296 S.2     1  UNL1        0.1165
     31 N          -0.2165   -1.8635    1.9283 N.ar    1  UNL1       -0.1901
     32 C          -0.7252   -0.9567    1.0727 C.ar    1  UNL1        0.1086
     33 H           4.3381   -2.0227   -0.2938 H       1  UNL1        0.0629
     34 H           1.7758   -2.4951    0.0308 H       1  UNL1        0.0629
     35 H           7.6945    3.0121   -1.5711 H       1  UNL1        0.0715
     36 H           9.9838   -0.5727    0.7081 H       1  UNL1        0.0845
     37 H           8.1194   -2.0879    1.3540 H       1  UNL1        0.0845
     38 H          -0.2965    1.3079   -1.4310 H       1  UNL1        0.0625
     39 H          -2.6873    1.5742   -1.1602 H       1  UNL1        0.0624
     40 H          -4.4557    0.8138    2.6550 H       1  UNL1        0.0624
     41 H          -6.8649    1.1437    2.8655 H       1  UNL1        0.0618
     42 H          -8.4648    0.8574    0.9310 H       1  UNL1        0.0624
     43 H          -8.3656    0.1297   -1.8755 H       1  UNL1        0.0813
     44 H          -6.4688   -0.5079   -3.3933 H       1  UNL1        0.1648
     45 H          -4.2083   -0.5043   -2.3183 H       1  UNL1        0.0813
@<TRIPOS>BOND
     1     1     2   ar
     2     2     3   ar
     3     3     4   ar
     4     4     5   ar
     5     5     6    1
     6     6     7   ar
     7     7     8   ar
     8     8     9   ar
     9     9    10   ar
    10    10    11   ar
    11    11    12   ar
    12    12    13   ar
    13    13    14   ar
    14     3    15    1
    15    15    16   ar
    16    16    17   ar
    17    17    18   ar
    18    18    19    1
    19    19    20   ar
    20    20    21   ar
    21    21    22   ar
    22    22    23   ar
    23    23    24   ar
    24    24    25   ar
    25    25    26   ar
    26    26    27   ar
    27    18    28   ar
    28    28    29   ar
    29    29    30   ar
    30    30    31   ar
    31    31    32   ar
    32     5     1   ar
    33    14     6   ar
    34    32    15   ar
    35    14     9   ar
    36    27    19   ar
    37    32    28   ar
    38    27    23   ar
    39     1    33    1
    40     2    34    1
    41     8    35    1
    42    11    36    1
    43    12    37    1
    44    16    38    1
    45    17    39    1
    46    20    40    1
    47    21    41    1
    48    22    42    1
    49    24    43    1
    50    25    44    1
    51    26    45    1
