@<TRIPOS>MOLECULE
*****
 41 45 0 0 0
SMALL
GASTEIGER

@<TRIPOS>ATOM
      1 C           6.6875    0.7281   -0.5608 C.ar    1  UNL1        0.0295
      2 C           5.4630    1.2744   -0.9168 C.ar    1  UNL1       -0.0196
      3 C           4.3520    0.5991   -0.4168 C.ar    1  UNL1        0.0498
      4 N           3.0082    0.8499   -0.5641 N.ar    1  UNL1       -0.3541
      5 C           2.2541   -0.0838    0.1135 C.ar    1  UNL1        0.0475
      6 C           0.7913   -0.0706    0.1226 C.ar    1  UNL1       -0.0011
      7 C           0.0735   -1.2678    0.0727 C.ar    1  UNL1       -0.0477
      8 C          -1.3326   -1.2727    0.0889 C.ar    1  UNL1       -0.0254
      9 C          -2.0545   -0.0647    0.1305 C.ar    1  UNL1        0.0361
     10 C          -1.3276    1.1405    0.1743 C.ar    1  UNL1       -0.0254
     11 C           0.0789    1.1303    0.1853 C.ar    1  UNL1       -0.0477
     12 C          -2.0503    2.4616    0.2514 C.3     1  UNL1       -0.0245
     13 C          -3.4584    2.3508   -0.3153 C.3     1  UNL1       -0.0332
     14 C          -4.1792    1.1788    0.3319 C.3     1  UNL1        0.0125
     15 N          -3.4424   -0.0617    0.1289 N.pl3   1  UNL1       -0.3294
     16 C          -4.1857   -1.3036   -0.0427 C.3     1  UNL1        0.0125
     17 C          -3.4607   -2.4697    0.6104 C.3     1  UNL1       -0.0332
     18 C          -2.0599   -2.5917    0.0282 C.3     1  UNL1       -0.0245
     19 C           3.1528   -0.9616    0.6962 C.ar    1  UNL1       -0.0272
     20 C           4.4727   -0.5393    0.3765 C.ar    1  UNL1        0.0183
     21 C           5.7552   -1.0113    0.6796 C.ar    1  UNL1        0.0367
     22 N           6.8544   -0.3715    0.2072 N.ar    1  UNL1       -0.2625
     23 H           7.6123    1.1859   -0.9030 H       1  UNL1        0.0830
     24 H           5.3864    2.1581   -1.5358 H       1  UNL1        0.0653
     25 H           2.6237    1.6041   -1.1146 H       1  UNL1        0.1659
     26 H           0.6055   -2.2150    0.0160 H       1  UNL1        0.0627
     27 H           0.6096    2.0764    0.2580 H       1  UNL1        0.0627
     28 H          -2.0893    2.7781    1.3008 H       1  UNL1        0.0314
     29 H          -1.5020    3.2274   -0.3098 H       1  UNL1        0.0314
     30 H          -4.0091    3.2811   -0.1378 H       1  UNL1        0.0283
     31 H          -3.4120    2.2015   -1.4020 H       1  UNL1        0.0283
     32 H          -5.1835    1.1001   -0.1014 H       1  UNL1        0.0464
     33 H          -4.3049    1.3530    1.4075 H       1  UNL1        0.0464
     34 H          -4.3274   -1.4933   -1.1137 H       1  UNL1        0.0464
     35 H          -5.1838   -1.2152    0.4028 H       1  UNL1        0.0464
     36 H          -3.4011   -2.3073    1.6946 H       1  UNL1        0.0283
     37 H          -4.0163   -3.4003    0.4507 H       1  UNL1        0.0283
     38 H          -2.1117   -2.9154   -1.0184 H       1  UNL1        0.0314
     39 H          -1.5086   -3.3557    0.5889 H       1  UNL1        0.0314
     40 H           2.8875   -1.8178    1.3031 H       1  UNL1        0.0645
     41 H           5.9325   -1.8889    1.2901 H       1  UNL1        0.0836
@<TRIPOS>BOND
     1     1     2   ar
     2     2     3   ar
     3     3     4   ar
     4     4     5   ar
     5     5     6    1
     6     6     7   ar
     7     7     8   ar
     8     8     9   ar
     9     9    10   ar
    10    10    11   ar
    11    10    12    1
    12    12    13    1
    13    13    14    1
    14    14    15    1
    15    15    16    1
    16    16    17    1
    17    17    18    1
    18     5    19   ar
    19    19    20   ar
    20    20    21   ar
    21    21    22   ar
    22    22     1   ar
    23    20     3   ar
    24    11     6   ar
    25    18     8    1
    26    15     9    1
    27     1    23    1
    28     2    24    1
    29     4    25    1
    30     7    26    1
    31    11    27    1
    32    12    28    1
    33    12    29    1
    34    13    30    1
    35    13    31    1
    36    14    32    1
    37    14    33    1
    38    16    34    1
    39    16    35    1
    40    17    36    1
    41    17    37    1
    42    18    38    1
    43    18    39    1
    44    19    40    1
    45    21    41    1
