@<TRIPOS>MOLECULE
*****
 49 56 0 0 0
SMALL
GASTEIGER

@<TRIPOS>ATOM
      1 SI         -3.7251    3.6836    0.4981 Si      1  UNL1        0.0000
      2 C          -4.8402    2.1969    0.3783 C.2     1  UNL1        0.0000
      3 C          -4.1302    1.0506    0.3347 C.ar    1  UNL1        0.0000
      4 C          -4.7051   -0.2809    0.4234 C.ar    1  UNL1        0.0000
      5 C          -6.1229   -0.6512    0.3483 C.2     1  UNL1        0.0000
      6 C          -6.3944   -1.9620    0.4745 C.2     1  UNL1        0.0000
      7 SI         -4.8281   -2.9400    0.7172 Si      1  UNL1        0.0000
      8 C          -3.8598   -1.3268    0.6234 C.ar    1  UNL1        0.0000
      9 C          -2.3827   -1.2006    0.6663 C.ar    1  UNL1        0.0000
     10 C          -1.5461   -2.2635    0.9980 C.ar    1  UNL1        0.0000
     11 N          -0.1990   -2.2121    0.9900 N.ar    1  UNL1        0.0000
     12 C           0.3636   -1.0784    0.5151 C.ar    1  UNL1        0.0000
     13 C           1.8375   -1.0727    0.5886 C.ar    1  UNL1        0.0000
     14 C           2.5997   -0.0681    0.1067 C.ar    1  UNL1        0.0000
     15 C           4.0101   -0.1770    0.3043 C.ar    1  UNL1        0.0000
     16 S           4.8902    0.9993    1.2630 S.2     1  UNL1        0.0000
     17 C           6.4224    0.2104    1.0493 C.ar    1  UNL1        0.0000
     18 C           6.2205   -0.8830    0.2891 C.ar    1  UNL1        0.0000
     19 N           7.1591   -1.7868   -0.1145 N.ar    1  UNL1        0.0000
     20 C           6.3793   -2.6737   -0.8553 C.ar    1  UNL1        0.0000
     21 C           5.0227   -2.2831   -0.8734 C.ar    1  UNL1        0.0000
     22 C           4.9205   -1.0910   -0.1096 C.ar    1  UNL1        0.0000
     23 C           1.9156    1.0069   -0.6155 C.ar    1  UNL1        0.0000
     24 C           2.5361    1.9448   -1.3627 C.2     1  UNL1        0.0000
     25 SI          1.3227    2.9866   -2.3113 Si      1  UNL1        0.0000
     26 C          -0.0405    1.9451   -1.5762 C.2     1  UNL1        0.0000
     27 C           0.4302    1.0537   -0.6772 C.ar    1  UNL1        0.0000
     28 C          -0.3675    0.0396    0.0644 C.ar    1  UNL1        0.0000
     29 C          -1.7575    0.0316    0.3148 C.ar    1  UNL1        0.0000
     30 C          -2.6552    1.2279    0.3252 C.ar    1  UNL1        0.0000
     31 C          -2.2745    2.5110    0.5090 C.2     1  UNL1        0.0000
     32 H          -3.7619    4.5209   -0.7255 H       1  UNL1        0.0000
     33 H          -3.8820    4.4113    1.7801 H       1  UNL1        0.0000
     34 H          -5.9108    2.3052    0.4379 H       1  UNL1        0.0000
     35 H          -6.8893    0.0980    0.1949 H       1  UNL1        0.0000
     36 H          -7.3670   -2.4270    0.4443 H       1  UNL1        0.0000
     37 H          -4.7407   -3.5683    2.0581 H       1  UNL1        0.0000
     38 H          -4.5334   -3.8437   -0.4212 H       1  UNL1        0.0000
     39 H          -1.9288   -3.2277    1.3176 H       1  UNL1        0.0000
     40 H           2.2732   -1.9210    1.1091 H       1  UNL1        0.0000
     41 H           7.3357    0.5898    1.4845 H       1  UNL1        0.0000
     42 H           8.1515   -1.7893    0.0864 H       1  UNL1        0.0000
     43 H           6.8554   -3.5277   -1.3198 H       1  UNL1        0.0000
     44 H           4.2250   -2.8091   -1.3814 H       1  UNL1        0.0000
     45 H           3.5983    2.0676   -1.5056 H       1  UNL1        0.0000
     46 H           1.2726    4.3892   -1.8322 H       1  UNL1        0.0000
     47 H           1.4390    2.8119   -3.7788 H       1  UNL1        0.0000
     48 H          -1.0601    2.0911   -1.8934 H       1  UNL1        0.0000
     49 H          -1.2777    2.8918    0.6592 H       1  UNL1        0.0000
@<TRIPOS>BOND
     1     1     2    1
     2     2     3    2
     3     3     4   ar
     4     4     5    1
     5     5     6    2
     6     6     7    1
     7     7     8    1
     8     8     9   ar
     9     9    10   ar
    10    10    11   ar
    11    11    12   ar
    12    12    13   ar
    13    13    14   ar
    14    14    15    1
    15    15    16   ar
    16    16    17   ar
    17    17    18   ar
    18    18    19   ar
    19    19    20   ar
    20    20    21   ar
    21    21    22   ar
    22    14    23   ar
    23    23    24    2
    24    24    25    1
    25    25    26    1
    26    26    27    2
    27    27    28   ar
    28    28    29   ar
    29    29    30   ar
    30    30    31    2
    31    31     1    1
    32    30     3   ar
    33     8     4   ar
    34    29     9   ar
    35    28    12   ar
    36    22    15   ar
    37    27    23   ar
    38    22    18   ar
    39     1    32    1
    40     1    33    1
    41     2    34    1
    42     5    35    1
    43     6    36    1
    44     7    37    1
    45     7    38    1
    46    10    39    1
    47    13    40    1
    48    17    41    1
    49    19    42    1
    50    20    43    1
    51    21    44    1
    52    24    45    1
    53    25    46    1
    54    25    47    1
    55    26    48    1
    56    31    49    1
