@<TRIPOS>MOLECULE
*****
 32 36 0 0 0
SMALL
GASTEIGER

@<TRIPOS>ATOM
      1 C          -6.1391    0.6424   -0.0260 C.ar    1  UNL1        0.0295
      2 C          -4.9608    1.3743   -0.0239 C.ar    1  UNL1       -0.0196
      3 C          -3.7961    0.6104   -0.0457 C.ar    1  UNL1        0.0498
      4 N          -2.4740    0.9891   -0.0504 N.ar    1  UNL1       -0.3529
      5 C          -1.6501   -0.1116   -0.0748 C.ar    1  UNL1        0.0640
      6 C          -0.2231   -0.0090   -0.0849 C.ar    1  UNL1        0.0639
      7 C           0.5962    1.1044   -0.0737 C.ar    1  UNL1       -0.0272
      8 C           1.9501    0.6652   -0.0918 C.ar    1  UNL1        0.0011
      9 C           3.1947    1.3201   -0.0915 C.ar    1  UNL1       -0.0418
     10 C           4.3854    0.5807   -0.1131 C.ar    1  UNL1        0.0208
     11 C           5.7739    0.8760   -0.1197 C.ar    1  UNL1       -0.0161
     12 C           6.4290   -0.3347   -0.1445 C.ar    1  UNL1        0.0931
     13 O           5.5389   -1.3622   -0.1538 O.2     1  UNL1       -0.4629
     14 C           4.2982   -0.8049   -0.1347 C.ar    1  UNL1        0.1368
     15 C           3.0910   -1.4859   -0.1357 C.ar    1  UNL1        0.0051
     16 C           1.9217   -0.7284   -0.1140 C.ar    1  UNL1        0.0505
     17 N           0.6013   -1.1093   -0.1093 N.ar    1  UNL1       -0.3529
     18 C          -2.4700   -1.2241   -0.0860 C.ar    1  UNL1       -0.0258
     19 C          -3.8237   -0.7824   -0.0678 C.ar    1  UNL1        0.0184
     20 C          -5.0665   -1.4269   -0.0680 C.ar    1  UNL1        0.0367
     21 N          -6.2158   -0.7069   -0.0470 N.ar    1  UNL1       -0.2625
     22 H          -7.1002    1.1505   -0.0099 H       1  UNL1        0.0830
     23 H          -4.9564    2.4559   -0.0065 H       1  UNL1        0.0653
     24 H          -2.1534    1.9460   -0.0376 H       1  UNL1        0.1659
     25 H           0.2722    2.1358   -0.0544 H       1  UNL1        0.0645
     26 H           3.2326    2.4056   -0.0743 H       1  UNL1        0.0631
     27 H           6.2394    1.8508   -0.1078 H       1  UNL1        0.0655
     28 H           7.4710   -0.6222   -0.1577 H       1  UNL1        0.1029
     29 H           3.0703   -2.5701   -0.1530 H       1  UNL1        0.0675
     30 H           0.2839   -2.0673   -0.1221 H       1  UNL1        0.1659
     31 H          -2.1468   -2.2560   -0.1052 H       1  UNL1        0.0646
     32 H          -5.1736   -2.5052   -0.0845 H       1  UNL1        0.0836
@<TRIPOS>BOND
     1     1     2   ar
     2     2     3   ar
     3     3     4   ar
     4     4     5   ar
     5     5     6    1
     6     6     7   ar
     7     7     8   ar
     8     8     9   ar
     9     9    10   ar
    10    10    11   ar
    11    11    12   ar
    12    12    13   ar
    13    13    14   ar
    14    14    15   ar
    15    15    16   ar
    16    16    17   ar
    17     5    18   ar
    18    18    19   ar
    19    19    20   ar
    20    20    21   ar
    21    21     1   ar
    22    19     3   ar
    23    17     6   ar
    24    16     8   ar
    25    14    10   ar
    26     1    22    1
    27     2    23    1
    28     4    24    1
    29     7    25    1
    30     9    26    1
    31    11    27    1
    32    12    28    1
    33    15    29    1
    34    17    30    1
    35    18    31    1
    36    20    32    1
