@<TRIPOS>MOLECULE
*****
 31 35 0 0 0
SMALL
GASTEIGER

@<TRIPOS>ATOM
      1 C           6.1305    0.0675   -0.4622 C.ar    1  UNL1        0.0295
      2 C           5.0015    0.6420   -1.0277 C.ar    1  UNL1       -0.0196
      3 C           3.7918    0.2186   -0.4819 C.ar    1  UNL1        0.0499
      4 N           2.4965    0.5690   -0.7886 N.ar    1  UNL1       -0.3517
      5 C           1.6110   -0.1057    0.0154 C.ar    1  UNL1        0.0832
      6 C           0.1899    0.0418   -0.0584 C.ar    1  UNL1        0.1523
      7 C          -0.5736    0.8411   -0.8963 C.ar    1  UNL1       -0.0065
      8 C          -1.9372    0.6229   -0.5683 C.ar    1  UNL1        0.0243
      9 C          -3.1756    1.0986   -1.0175 C.ar    1  UNL1       -0.0080
     10 C          -4.3290    0.6152   -0.4086 C.ar    1  UNL1        0.1356
     11 O          -5.6063    0.9670   -0.7180 O.2     1  UNL1       -0.4629
     12 C          -6.4199    0.2636    0.1133 C.ar    1  UNL1        0.0931
     13 C          -5.6812   -0.5375    0.9548 C.ar    1  UNL1       -0.0160
     14 C          -4.3191   -0.3169    0.6242 C.ar    1  UNL1        0.0236
     15 C          -3.0794   -0.7911    1.0717 C.ar    1  UNL1       -0.0080
     16 C          -1.9271   -0.3067    0.4618 C.ar    1  UNL1        0.1365
     17 O          -0.6527   -0.6570    0.7697 O.2     1  UNL1       -0.4533
     18 C           2.3565   -0.9074    0.8572 C.ar    1  UNL1       -0.0242
     19 C           3.7323   -0.7126    0.5543 C.ar    1  UNL1        0.0184
     20 C           4.9308   -1.2333    1.0559 C.ar    1  UNL1        0.0367
     21 N           6.1221   -0.8373    0.5417 N.ar    1  UNL1       -0.2625
     22 H           7.1210    0.3354   -0.8217 H       1  UNL1        0.0830
     23 H           5.0665    1.3631   -1.8314 H       1  UNL1        0.0653
     24 H           2.2412    1.2310   -1.5065 H       1  UNL1        0.1660
     25 H          -0.1997    1.5078   -1.6592 H       1  UNL1        0.0662
     26 H          -3.2451    1.8258   -1.8194 H       1  UNL1        0.0661
     27 H          -7.4791    0.4391   -0.0143 H       1  UNL1        0.1029
     28 H          -6.0763   -1.1986    1.7128 H       1  UNL1        0.0655
     29 H          -3.0098   -1.5185    1.8737 H       1  UNL1        0.0661
     30 H           1.9504   -1.5668    1.6140 H       1  UNL1        0.0646
     31 H           4.9690   -1.9599    1.8592 H       1  UNL1        0.0836
@<TRIPOS>BOND
     1     1     2   ar
     2     2     3   ar
     3     3     4   ar
     4     4     5   ar
     5     5     6    1
     6     6     7   ar
     7     7     8   ar
     8     8     9   ar
     9     9    10   ar
    10    10    11   ar
    11    11    12   ar
    12    12    13   ar
    13    13    14   ar
    14    14    15   ar
    15    15    16   ar
    16    16    17   ar
    17     5    18   ar
    18    18    19   ar
    19    19    20   ar
    20    20    21   ar
    21    21     1   ar
    22    19     3   ar
    23    17     6   ar
    24    16     8   ar
    25    14    10   ar
    26     1    22    1
    27     2    23    1
    28     4    24    1
    29     7    25    1
    30     9    26    1
    31    12    27    1
    32    13    28    1
    33    15    29    1
    34    18    30    1
    35    20    31    1
