@<TRIPOS>MOLECULE
*****
 30 34 0 0 0
SMALL
GASTEIGER

@<TRIPOS>ATOM
      1 C           5.9085    0.1554   -0.2841 C.ar    1  UNL1        0.0295
      2 C           4.7866    0.9627   -0.4009 C.ar    1  UNL1       -0.0196
      3 C           3.5718    0.3108   -0.2012 C.ar    1  UNL1        0.0498
      4 N           2.2816    0.7859   -0.2386 N.ar    1  UNL1       -0.3529
      5 C           1.3824   -0.2219    0.0214 C.ar    1  UNL1        0.0640
      6 C          -0.0324   -0.0107    0.0466 C.ar    1  UNL1        0.0665
      7 C          -0.7707    1.1453   -0.1636 C.ar    1  UNL1       -0.0073
      8 C          -2.1374    0.8146   -0.0252 C.ar    1  UNL1        0.1090
      9 N          -3.2613    1.5726   -0.1312 N.ar    1  UNL1       -0.2387
     10 C          -4.4256    0.8974    0.0708 C.ar    1  UNL1        0.1293
     11 C          -5.7715    1.3171    0.0480 C.ar    1  UNL1        0.0039
     12 C          -6.5215    0.1938    0.3251 C.ar    1  UNL1        0.0966
     13 O          -5.7231   -0.8938    0.5177 O.2     1  UNL1       -0.4439
     14 C          -4.4400   -0.4664    0.3627 C.ar    1  UNL1        0.2478
     15 N          -3.3407   -1.2405    0.4734 N.ar    1  UNL1       -0.1914
     16 C          -2.2067   -0.5417    0.2679 C.ar    1  UNL1        0.1609
     17 N          -0.9312   -1.0251    0.3078 N.ar    1  UNL1       -0.3366
     18 C           2.1200   -1.3718    0.2304 C.ar    1  UNL1       -0.0258
     19 C           3.5001   -1.0491    0.0929 C.ar    1  UNL1        0.0184
     20 C           4.6924   -1.7765    0.1891 C.ar    1  UNL1        0.0367
     21 N           5.8886   -1.1660   -0.0008 N.ar    1  UNL1       -0.2625
     22 H           6.9024    0.5740   -0.4229 H       1  UNL1        0.0830
     23 H           4.8596    2.0174   -0.6298 H       1  UNL1        0.0653
     24 H           2.0330    1.7452   -0.4313 H       1  UNL1        0.1659
     25 H          -0.3848    2.1281   -0.3927 H       1  UNL1        0.0661
     26 H          -6.1449    2.3112   -0.1457 H       1  UNL1        0.0671
     27 H          -7.5832    0.0086    0.4174 H       1  UNL1        0.1031
     28 H          -0.7003   -1.9877    0.5018 H       1  UNL1        0.1674
     29 H           1.7256   -2.3527    0.4596 H       1  UNL1        0.0646
     30 H           4.7227   -2.8362    0.4140 H       1  UNL1        0.0836
@<TRIPOS>BOND
     1     1     2   ar
     2     2     3   ar
     3     3     4   ar
     4     4     5   ar
     5     5     6    1
     6     6     7   ar
     7     7     8   ar
     8     8     9   ar
     9     9    10   ar
    10    10    11   ar
    11    11    12   ar
    12    12    13   ar
    13    13    14   ar
    14    14    15   ar
    15    15    16   ar
    16    16    17   ar
    17     5    18   ar
    18    18    19   ar
    19    19    20   ar
    20    20    21   ar
    21    21     1   ar
    22    19     3   ar
    23    17     6   ar
    24    16     8   ar
    25    14    10   ar
    26     1    22    1
    27     2    23    1
    28     4    24    1
    29     7    25    1
    30    11    26    1
    31    12    27    1
    32    17    28    1
    33    18    29    1
    34    20    30    1
