@<TRIPOS>MOLECULE
*****
 27 30 0 0 0
SMALL
GASTEIGER

@<TRIPOS>ATOM
      1 C           4.9665    0.1824   -0.4130 C.ar    1  UNL1        0.0295
      2 C           3.9402   -0.7336   -0.2333 C.ar    1  UNL1       -0.0196
      3 C           2.6620   -0.1810   -0.1916 C.ar    1  UNL1        0.0498
      4 N           1.4324   -0.7749   -0.0304 N.ar    1  UNL1       -0.3541
      5 C           0.4128    0.1573   -0.0499 C.ar    1  UNL1        0.0476
      6 C          -1.0163   -0.1782    0.0992 C.ar    1  UNL1        0.0005
      7 C          -1.4507   -1.5069    0.2764 C.ar    1  UNL1       -0.0505
      8 C          -2.8063   -1.8480    0.4204 C.ar    1  UNL1       -0.0341
      9 C          -3.7153   -0.7949    0.3791 C.ar    1  UNL1        0.0858
     10 N          -5.0758   -0.7199    0.4787 N.ar    1  UNL1       -0.2571
     11 N          -5.5171    0.5442    0.3778 N.ar    1  UNL1       -0.0673
     12 N          -4.4552    1.3232    0.2100 N.ar    1  UNL1       -0.1296
     13 C          -3.3402    0.5280    0.2073 C.ar    1  UNL1        0.1131
     14 C          -1.9816    0.8476    0.0654 C.ar    1  UNL1       -0.0233
     15 C           1.0375    1.3847   -0.2313 C.ar    1  UNL1       -0.0272
     16 C           2.4425    1.1856   -0.3211 C.ar    1  UNL1        0.0183
     17 C           3.5458    2.0284   -0.4990 C.ar    1  UNL1        0.0367
     18 N           4.8018    1.5174   -0.5434 N.ar    1  UNL1       -0.2625
     19 H           5.9997   -0.1530   -0.4587 H       1  UNL1        0.0830
     20 H           4.1285   -1.7941   -0.1343 H       1  UNL1        0.0653
     21 H           1.3079   -1.7685    0.0862 H       1  UNL1        0.1659
     22 H          -0.7373   -2.3263    0.3081 H       1  UNL1        0.0625
     23 H          -3.1180   -2.8780    0.5558 H       1  UNL1        0.0639
     24 H          -5.7511   -1.4621    0.6120 H       1  UNL1        0.1907
     25 H          -1.7116    1.8884   -0.0679 H       1  UNL1        0.0646
     26 H           0.5413    2.3442   -0.2951 H       1  UNL1        0.0645
     27 H           3.4576    3.1031   -0.6075 H       1  UNL1        0.0836
@<TRIPOS>BOND
     1     1     2   ar
     2     2     3   ar
     3     3     4   ar
     4     4     5   ar
     5     5     6    1
     6     6     7   ar
     7     7     8   ar
     8     8     9   ar
     9     9    10   ar
    10    10    11   ar
    11    11    12   ar
    12    12    13   ar
    13    13    14   ar
    14     5    15   ar
    15    15    16   ar
    16    16    17   ar
    17    17    18   ar
    18    18     1   ar
    19    16     3   ar
    20    14     6   ar
    21    13     9   ar
    22     1    19    1
    23     2    20    1
    24     4    21    1
    25     7    22    1
    26     8    23    1
    27    10    24    1
    28    14    25    1
    29    15    26    1
    30    17    27    1
