@<TRIPOS>MOLECULE
*****
 22 24 0 0 0
SMALL
GASTEIGER

@<TRIPOS>ATOM
      1 C          -3.8621    0.6822    0.5200 C.ar    1  UNL1        0.0295
      2 C          -2.6364    1.2415    0.8503 C.ar    1  UNL1       -0.0196
      3 C          -1.5272    0.5515    0.3665 C.ar    1  UNL1        0.0498
      4 N          -0.1821    0.8097    0.4963 N.ar    1  UNL1       -0.3540
      5 C           0.5497   -0.1490   -0.1524 C.ar    1  UNL1        0.0505
      6 C           2.0900   -0.1942   -0.2268 C.ar    1  UNL1        0.0355
      7 C           2.9179   -1.1351   -0.8666 C.ar    1  UNL1        0.0582
      8 N           4.2155   -0.8503   -0.7181 N.ar    1  UNL1       -0.1817
      9 N           4.2091    0.2741    0.0178 N.ar    1  UNL1       -0.2841
     10 C           2.9544    0.7100    0.3396 C.ar    1  UNL1        0.0314
     11 C          -0.3328   -1.0452   -0.7131 C.ar    1  UNL1       -0.0271
     12 C          -1.6512   -0.6132   -0.3920 C.ar    1  UNL1        0.0183
     13 C          -2.9356   -1.0958   -0.6703 C.ar    1  UNL1        0.0367
     14 N          -4.0318   -0.4421   -0.2106 N.ar    1  UNL1       -0.2625
     15 H          -4.7857    1.1495    0.8527 H       1  UNL1        0.0830
     16 H          -2.5582    2.1453    1.4394 H       1  UNL1        0.0653
     17 H           0.2095    1.5934    0.9976 H       1  UNL1        0.1659
     18 H           2.6359   -2.0129   -1.4327 H       1  UNL1        0.0854
     19 H           5.1013    0.6903    0.2641 H       1  UNL1        0.1882
     20 H           2.8089    1.6030    0.9281 H       1  UNL1        0.0830
     21 H          -0.0720   -1.9204   -1.2933 H       1  UNL1        0.0645
     22 H          -3.1171   -1.9923   -1.2516 H       1  UNL1        0.0836
@<TRIPOS>BOND
     1     1     2   ar
     2     2     3   ar
     3     3     4   ar
     4     4     5   ar
     5     5     6    1
     6     6     7   ar
     7     7     8   ar
     8     8     9   ar
     9     9    10   ar
    10     5    11   ar
    11    11    12   ar
    12    12    13   ar
    13    13    14   ar
    14    14     1   ar
    15    12     3   ar
    16    10     6   ar
    17     1    15    1
    18     2    16    1
    19     4    17    1
    20     7    18    1
    21     9    19    1
    22    10    20    1
    23    11    21    1
    24    13    22    1
