@<TRIPOS>MOLECULE
*****
 33 37 0 0 0
SMALL
GASTEIGER

@<TRIPOS>ATOM
      1 C          -5.2564    1.6792   -1.0416 C.ar    1  UNL1        0.0295
      2 C          -4.1940    2.2499   -0.3562 C.ar    1  UNL1       -0.0196
      3 C          -3.1716    1.3664   -0.0174 C.ar    1  UNL1        0.0498
      4 N          -1.9906    1.5778    0.6549 N.ar    1  UNL1       -0.3540
      5 C          -1.2699    0.4082    0.7527 C.ar    1  UNL1        0.0510
      6 C           0.0264    0.3437    1.4007 C.ar    1  UNL1        0.0403
      7 C           0.2745    0.7788    2.6982 C.ar    1  UNL1        0.0387
      8 N           1.4786    0.7392    3.3142 N.ar    1  UNL1       -0.2619
      9 C           2.5400    0.2307    2.6404 C.ar    1  UNL1        0.0374
     10 C           2.3981   -0.2357    1.3259 C.ar    1  UNL1        0.0276
     11 C           1.1380   -0.1690    0.7259 C.ar    1  UNL1        0.0597
     12 N           1.2756   -0.6614   -0.5525 N.ar    1  UNL1       -0.3535
     13 C           2.5685   -1.0595   -0.7902 C.ar    1  UNL1        0.0504
     14 C           3.1507   -1.6154   -1.9271 C.ar    1  UNL1       -0.0196
     15 C           4.5040   -1.8950   -1.8141 C.ar    1  UNL1        0.0295
     16 N           5.2528   -1.6670   -0.7129 N.ar    1  UNL1       -0.2625
     17 C           4.6625   -1.1243    0.3807 C.ar    1  UNL1        0.0373
     18 C           3.2983   -0.8054    0.3706 C.ar    1  UNL1        0.0270
     19 C          -2.0252   -0.5772    0.1421 C.ar    1  UNL1       -0.0271
     20 C          -3.2224    0.0135   -0.3480 C.ar    1  UNL1        0.0183
     21 C          -4.3428   -0.4658   -1.0369 C.ar    1  UNL1        0.0367
     22 N          -5.3500    0.3744   -1.3813 N.ar    1  UNL1       -0.2625
     23 H          -6.1024    2.2893   -1.3488 H       1  UNL1        0.0830
     24 H          -4.1713    3.3025   -0.1070 H       1  UNL1        0.0653
     25 H          -1.6845    2.4754    1.0053 H       1  UNL1        0.1659
     26 H          -0.5272    1.1810    3.3128 H       1  UNL1        0.0837
     27 H           3.4834    0.2140    3.1750 H       1  UNL1        0.0836
     28 H           0.5220   -0.7147   -1.2235 H       1  UNL1        0.1659
     29 H           2.5973   -1.8171   -2.8349 H       1  UNL1        0.0653
     30 H           5.0466   -2.3311   -2.6495 H       1  UNL1        0.0830
     31 H           5.3040   -0.9595    1.2388 H       1  UNL1        0.0836
     32 H          -1.7517   -1.6223    0.0657 H       1  UNL1        0.0645
     33 H          -4.4611   -1.5036   -1.3259 H       1  UNL1        0.0836
@<TRIPOS>BOND
     1     1     2   ar
     2     2     3   ar
     3     3     4   ar
     4     4     5   ar
     5     5     6    1
     6     6     7   ar
     7     7     8   ar
     8     8     9   ar
     9     9    10   ar
    10    10    11   ar
    11    11    12   ar
    12    12    13   ar
    13    13    14   ar
    14    14    15   ar
    15    15    16   ar
    16    16    17   ar
    17    17    18   ar
    18     5    19   ar
    19    19    20   ar
    20    20    21   ar
    21    21    22   ar
    22    22     1   ar
    23    20     3   ar
    24    11     6   ar
    25    18    13   ar
    26    18    10   ar
    27     1    23    1
    28     2    24    1
    29     4    25    1
    30     7    26    1
    31     9    27    1
    32    12    28    1
    33    14    29    1
    34    15    30    1
    35    17    31    1
    36    19    32    1
    37    21    33    1
