@<TRIPOS>MOLECULE
*****
 29 33 0 0 0
SMALL
GASTEIGER

@<TRIPOS>ATOM
      1 C          -5.7924    0.6592    0.3715 C.ar    1  UNL1        0.0295
      2 C          -4.6236    1.2477   -0.0889 C.ar    1  UNL1       -0.0196
      3 C          -3.4598    0.5325    0.1835 C.ar    1  UNL1        0.0499
      4 N          -2.1457    0.8080   -0.1173 N.ar    1  UNL1       -0.3504
      5 C          -1.3283   -0.1893    0.3521 C.ar    1  UNL1        0.1031
      6 C           0.0873   -0.1604    0.1786 C.ar    1  UNL1        0.2450
      7 N           0.8943   -1.1098    0.6222 N.ar    1  UNL1       -0.2076
      8 C           2.1438   -0.6928    0.2491 C.ar    1  UNL1        0.1135
      9 C           3.4066   -1.2628    0.4290 C.ar    1  UNL1        0.0120
     10 C           4.4979   -0.5723   -0.0801 C.ar    1  UNL1        0.1573
     11 O           5.8149   -0.9218   -0.0302 O.2     1  UNL1       -0.4424
     12 C           6.4410    0.1041   -0.6760 C.ar    1  UNL1        0.1831
     13 N           5.6543    1.0595   -1.1253 N.ar    1  UNL1       -0.2160
     14 C           4.4041    0.6407   -0.7511 C.ar    1  UNL1        0.1129
     15 C           3.1406    1.2095   -0.9302 C.ar    1  UNL1        0.0120
     16 C           2.0501    0.5179   -0.4206 C.ar    1  UNL1        0.1580
     17 O           0.7351    0.8678   -0.4710 O.2     1  UNL1       -0.4340
     18 C          -2.1318   -1.1269    0.9681 C.ar    1  UNL1       -0.0226
     19 C          -3.4799   -0.6832    0.8686 C.ar    1  UNL1        0.0185
     20 C          -4.7135   -1.1921    1.2916 C.ar    1  UNL1        0.0367
     21 N          -5.8609   -0.5143    1.0384 N.ar    1  UNL1       -0.2625
     22 H          -6.7521    1.1429    0.2065 H       1  UNL1        0.0830
     23 H          -4.6266    2.1911   -0.6185 H       1  UNL1        0.0653
     24 H          -1.8240    1.6280   -0.6136 H       1  UNL1        0.1660
     25 H           3.5266   -2.2074    0.9462 H       1  UNL1        0.0677
     26 H           7.5170    0.0351   -0.7568 H       1  UNL1        0.1255
     27 H           3.0212    2.1540   -1.4475 H       1  UNL1        0.0677
     28 H          -1.7822   -2.0368    1.4403 H       1  UNL1        0.0647
     29 H          -4.8141   -2.1282    1.8286 H       1  UNL1        0.0836
@<TRIPOS>BOND
     1     1     2   ar
     2     2     3   ar
     3     3     4   ar
     4     4     5   ar
     5     5     6    1
     6     6     7   ar
     7     7     8   ar
     8     8     9   ar
     9     9    10   ar
    10    10    11   ar
    11    11    12   ar
    12    12    13   ar
    13    13    14   ar
    14    14    15   ar
    15    15    16   ar
    16    16    17   ar
    17     5    18   ar
    18    18    19   ar
    19    19    20   ar
    20    20    21   ar
    21    21     1   ar
    22    19     3   ar
    23    17     6   ar
    24    16     8   ar
    25    14    10   ar
    26     1    22    1
    27     2    23    1
    28     4    24    1
    29     9    25    1
    30    12    26    1
    31    15    27    1
    32    18    28    1
    33    20    29    1
