@<TRIPOS>MOLECULE
*****
 29 33 0 0 0
SMALL
GASTEIGER

@<TRIPOS>ATOM
      1 C          -5.8023    0.8263    0.5186 C.ar    1  UNL1        0.0295
      2 C          -4.5331    1.3169    0.7872 C.ar    1  UNL1       -0.0196
      3 C          -3.4873    0.5249    0.3194 C.ar    1  UNL1        0.0499
      4 N          -2.1265    0.6952    0.4025 N.ar    1  UNL1       -0.3525
      5 C          -1.4675   -0.3474   -0.2053 C.ar    1  UNL1        0.0729
      6 C          -0.0369   -0.3834   -0.2419 C.ar    1  UNL1        0.1256
      7 N           0.6753    0.5789    0.3046 N.ar    1  UNL1       -0.2375
      8 C           2.0240    0.3146    0.1375 C.ar    1  UNL1        0.0801
      9 C           3.0844    1.1127    0.5855 C.ar    1  UNL1       -0.0194
     10 C           4.4044    0.7284    0.3496 C.ar    1  UNL1        0.0410
     11 S           5.8736    1.5132    0.7854 S.2     1  UNL1       -0.0753
     12 C           6.7565    0.2463    0.0459 C.ar    1  UNL1        0.0659
     13 N           6.0497   -0.7165   -0.5009 N.ar    1  UNL1       -0.2474
     14 C           4.7014   -0.4515   -0.3334 C.ar    1  UNL1        0.0793
     15 C           3.6405   -1.2489   -0.7810 C.ar    1  UNL1       -0.0194
     16 C           2.3210   -0.8643   -0.5449 C.ar    1  UNL1        0.0417
     17 S           0.8528   -1.6464   -0.9792 S.2     1  UNL1       -0.0657
     18 C          -2.4324   -1.2087   -0.6908 C.ar    1  UNL1       -0.0252
     19 C          -3.7101   -0.6691   -0.3659 C.ar    1  UNL1        0.0184
     20 C          -5.0313   -1.0767   -0.5861 C.ar    1  UNL1        0.0367
     21 N          -6.0676   -0.3235   -0.1408 N.ar    1  UNL1       -0.2625
     22 H          -6.6826    1.3751    0.8445 H       1  UNL1        0.0830
     23 H          -4.3766    2.2453    1.3203 H       1  UNL1        0.0653
     24 H          -1.6541    1.4727    0.8452 H       1  UNL1        0.1660
     25 H           2.8642    2.0334    1.1183 H       1  UNL1        0.0651
     26 H           7.8388    0.2449    0.0332 H       1  UNL1        0.0907
     27 H           3.8625   -2.1695   -1.3138 H       1  UNL1        0.0651
     28 H          -2.2514   -2.1327   -1.2250 H       1  UNL1        0.0646
     29 H          -5.2892   -1.9901   -1.1094 H       1  UNL1        0.0836
@<TRIPOS>BOND
     1     1     2   ar
     2     2     3   ar
     3     3     4   ar
     4     4     5   ar
     5     5     6    1
     6     6     7   ar
     7     7     8   ar
     8     8     9   ar
     9     9    10   ar
    10    10    11   ar
    11    11    12   ar
    12    12    13   ar
    13    13    14   ar
    14    14    15   ar
    15    15    16   ar
    16    16    17   ar
    17     5    18   ar
    18    18    19   ar
    19    19    20   ar
    20    20    21   ar
    21    21     1   ar
    22    19     3   ar
    23    17     6   ar
    24    16     8   ar
    25    14    10   ar
    26     1    22    1
    27     2    23    1
    28     4    24    1
    29     9    25    1
    30    12    26    1
    31    15    27    1
    32    18    28    1
    33    20    29    1
