@<TRIPOS>MOLECULE
*****
 29 33 0 0 0
SMALL
GASTEIGER

@<TRIPOS>ATOM
      1 C           5.7495    0.1101    0.8401 C.ar    1  UNL1        0.0295
      2 C           4.5285   -0.0769    1.4706 C.ar    1  UNL1       -0.0196
      3 C           3.4168    0.0276    0.6383 C.ar    1  UNL1        0.0499
      4 N           2.0762   -0.0961    0.9134 N.ar    1  UNL1       -0.3517
      5 C           1.3309    0.0876   -0.2264 C.ar    1  UNL1        0.0833
      6 C          -0.0893    0.0048   -0.1824 C.ar    1  UNL1        0.1585
      7 N          -0.7699   -0.2462    0.9206 N.ar    1  UNL1       -0.2053
      8 C          -2.0811   -0.2384    0.5301 C.ar    1  UNL1        0.1998
      9 N          -3.1733   -0.4468    1.3046 N.ar    1  UNL1       -0.2020
     10 C          -4.3524   -0.3784    0.6396 C.ar    1  UNL1        0.1992
     11 N          -5.6115   -0.5439    1.1500 N.ar    1  UNL1       -0.2152
     12 C          -6.4152   -0.3843    0.1180 C.ar    1  UNL1        0.0973
     13 N          -5.7282   -0.1224   -1.0390 N.ar    1  UNL1       -0.3279
     14 C          -4.4029   -0.1141   -0.7268 C.ar    1  UNL1        0.1791
     15 N          -3.3433    0.0990   -1.5346 N.ar    1  UNL1       -0.2052
     16 C          -2.1937    0.0219   -0.8326 C.ar    1  UNL1        0.1796
     17 N          -0.9134    0.1739   -1.2680 N.ar    1  UNL1       -0.3202
     18 C           2.2116    0.3354   -1.2591 C.ar    1  UNL1       -0.0242
     19 C           3.5330    0.3000   -0.7248 C.ar    1  UNL1        0.0184
     20 C           4.8135    0.4723   -1.2643 C.ar    1  UNL1        0.0367
     21 N           5.9123    0.3756   -0.4756 N.ar    1  UNL1       -0.2625
     22 H           6.6747    0.0475    1.4079 H       1  UNL1        0.0830
     23 H           4.4537   -0.2876    2.5293 H       1  UNL1        0.0653
     24 H           1.6721   -0.2944    1.8203 H       1  UNL1        0.1660
     25 H          -7.4957   -0.4461    0.1457 H       1  UNL1        0.1028
     26 H          -6.1187    0.0363   -1.9556 H       1  UNL1        0.1683
     27 H          -0.6306    0.3735   -2.2142 H       1  UNL1        0.1689
     28 H           1.9552    0.5239   -2.2928 H       1  UNL1        0.0646
     29 H           4.9910    0.6862   -2.3118 H       1  UNL1        0.0836
@<TRIPOS>BOND
     1     1     2   ar
     2     2     3   ar
     3     3     4   ar
     4     4     5   ar
     5     5     6    1
     6     6     7   ar
     7     7     8   ar
     8     8     9   ar
     9     9    10   ar
    10    10    11   ar
    11    11    12   ar
    12    12    13   ar
    13    13    14   ar
    14    14    15   ar
    15    15    16   ar
    16    16    17   ar
    17     5    18   ar
    18    18    19   ar
    19    19    20   ar
    20    20    21   ar
    21    21     1   ar
    22    19     3   ar
    23    17     6   ar
    24    16     8   ar
    25    14    10   ar
    26     1    22    1
    27     2    23    1
    28     4    24    1
    29    12    25    1
    30    13    26    1
    31    17    27    1
    32    18    28    1
    33    20    29    1
