@<TRIPOS>MOLECULE
*****
 34 38 0 0 0
SMALL
GASTEIGER

@<TRIPOS>ATOM
      1 C           4.7919   -2.5143    0.3164 C.ar    1  UNL1        0.0295
      2 C           3.4096   -2.4986    0.4232 C.ar    1  UNL1       -0.0196
      3 C           2.8189   -1.2528    0.2235 C.ar    1  UNL1        0.0504
      4 N           1.4986   -0.8757    0.2500 N.ar    1  UNL1       -0.3535
      5 C           1.3641    0.4738    0.0044 C.ar    1  UNL1        0.0583
      6 C           0.2194    1.2824   -0.0609 C.ar    1  UNL1        0.0242
      7 C          -1.1250    0.7633    0.1719 C.ar    1  UNL1       -0.0123
      8 C          -1.4961    0.2563    1.4213 C.ar    1  UNL1       -0.0518
      9 C          -2.7854   -0.2404    1.6292 C.ar    1  UNL1       -0.0337
     10 C          -3.7293   -0.2450    0.6123 C.ar    1  UNL1        0.0892
     11 N          -4.9609   -0.7362    0.8506 N.ar    1  UNL1       -0.2519
     12 C          -5.8286   -0.7065   -0.1839 C.ar    1  UNL1        0.0464
     13 C          -5.4809   -0.2059   -1.4213 C.ar    1  UNL1        0.0464
     14 N          -4.2502    0.2871   -1.6788 N.ar    1  UNL1       -0.2519
     15 C          -3.3709    0.2693   -0.6579 C.ar    1  UNL1        0.0897
     16 C          -2.0847    0.7617   -0.8518 C.ar    1  UNL1       -0.0264
     17 C           0.4871    2.6168   -0.3698 C.ar    1  UNL1        0.0373
     18 N           1.7140    3.1465   -0.5861 N.ar    1  UNL1       -0.2619
     19 C           2.7964    2.3369   -0.5055 C.ar    1  UNL1        0.0374
     20 C           2.6498    0.9756   -0.2103 C.ar    1  UNL1        0.0275
     21 C           3.5674   -0.1124   -0.0637 C.ar    1  UNL1        0.0269
     22 C           4.9602   -0.2364   -0.1515 C.ar    1  UNL1        0.0373
     23 N           5.5597   -1.4374    0.0411 N.ar    1  UNL1       -0.2625
     24 H           5.3433   -3.4410    0.4562 H       1  UNL1        0.0830
     25 H           2.8415   -3.3926    0.6444 H       1  UNL1        0.0653
     26 H           0.7251   -1.5029    0.4207 H       1  UNL1        0.1659
     27 H          -0.7899    0.2574    2.2504 H       1  UNL1        0.0624
     28 H          -3.0632   -0.6269    2.6070 H       1  UNL1        0.0640
     29 H          -6.8191   -1.1000    0.0129 H       1  UNL1        0.0845
     30 H          -6.1845   -0.1864   -2.2456 H       1  UNL1        0.0845
     31 H          -1.8286    1.1460   -1.8381 H       1  UNL1        0.0645
     32 H          -0.3253    3.3373   -0.4476 H       1  UNL1        0.0836
     33 H           3.7585    2.8036   -0.6851 H       1  UNL1        0.0836
     34 H           5.6173    0.5971   -0.3718 H       1  UNL1        0.0836
@<TRIPOS>BOND
     1     1     2   ar
     2     2     3   ar
     3     3     4   ar
     4     4     5   ar
     5     5     6   ar
     6     6     7    1
     7     7     8   ar
     8     8     9   ar
     9     9    10   ar
    10    10    11   ar
    11    11    12   ar
    12    12    13   ar
    13    13    14   ar
    14    14    15   ar
    15    15    16   ar
    16     6    17   ar
    17    17    18   ar
    18    18    19   ar
    19    19    20   ar
    20    20    21   ar
    21    21    22   ar
    22    22    23   ar
    23    23     1   ar
    24    21     3   ar
    25    20     5   ar
    26    16     7   ar
    27    15    10   ar
    28     1    24    1
    29     2    25    1
    30     4    26    1
    31     8    27    1
    32     9    28    1
    33    12    29    1
    34    13    30    1
    35    16    31    1
    36    17    32    1
    37    19    33    1
    38    22    34    1
