@<TRIPOS>MOLECULE
*****
 45 51 0 0 0
SMALL
GASTEIGER

@<TRIPOS>ATOM
      1 SI         -3.4847   -0.9581    3.5029 Si      1  UNL1        0.0000
      2 C          -4.6830   -0.4749    2.1498 C.2     1  UNL1        0.0000
      3 C          -4.0402   -0.2468    0.9862 C.ar    1  UNL1        0.0000
      4 C          -4.6769    0.1512   -0.2805 C.ar    1  UNL1        0.0000
      5 C          -6.1009    0.3800   -0.5493 C.2     1  UNL1        0.0000
      6 C          -6.4012    0.7394   -1.8125 C.2     1  UNL1        0.0000
      7 SI         -4.8428    0.8395   -2.8771 Si      1  UNL1        0.0000
      8 C          -3.8938    0.3464   -1.3774 C.ar    1  UNL1        0.0000
      9 C          -2.4872    0.1697   -1.3028 C.ar    1  UNL1        0.0000
     10 O          -1.5786    0.3318   -2.3284 O.2     1  UNL1        0.0000
     11 C          -0.3641    0.0557   -1.7783 C.ar    1  UNL1        0.0000
     12 C           0.9750    0.0137   -2.1967 C.ar    1  UNL1        0.0000
     13 C           1.6758   -0.3470   -1.0502 C.ar    1  UNL1        0.0000
     14 N           0.7802   -0.5326   -0.0084 N.ar    1  UNL1        0.0000
     15 C          -0.4773   -0.2689   -0.4738 C.ar    1  UNL1        0.0000
     16 C          -1.8312   -0.2055   -0.1327 C.ar    1  UNL1        0.0000
     17 C          -2.5563   -0.4336    1.0663 C.ar    1  UNL1        0.0000
     18 C          -2.0852   -0.7973    2.2730 C.2     1  UNL1        0.0000
     19 C           3.1135   -0.5696   -0.8677 C.ar    1  UNL1        0.0000
     20 C           3.6884   -1.6635   -1.5329 C.ar    1  UNL1        0.0000
     21 C           5.0378   -1.9599   -1.3744 C.ar    1  UNL1        0.0000
     22 C           5.8284   -1.1651   -0.5484 C.ar    1  UNL1        0.0000
     23 C           5.2868   -0.0572    0.1216 C.ar    1  UNL1        0.0000
     24 C           6.1038    0.7376    0.9433 C.ar    1  UNL1        0.0000
     25 C           5.5907    1.8518    1.6057 C.ar    1  UNL1        0.0000
     26 C           4.2535    2.1906    1.4504 C.ar    1  UNL1        0.0000
     27 C           3.4278    1.4094    0.6391 C.ar    1  UNL1        0.0000
     28 C           3.9143    0.2634   -0.0361 C.ar    1  UNL1        0.0000
     29 H          -3.6755   -2.3564    3.9565 H       1  UNL1        0.0000
     30 H          -3.4051    0.0583    4.5790 H       1  UNL1        0.0000
     31 H          -5.7411   -0.4062    2.3427 H       1  UNL1        0.0000
     32 H          -6.8449    0.2628    0.2279 H       1  UNL1        0.0000
     33 H          -7.3767    0.9534   -2.2188 H       1  UNL1        0.0000
     34 H          -4.8886   -0.1834   -3.9532 H       1  UNL1        0.0000
     35 H          -4.6178    2.2365   -3.3289 H       1  UNL1        0.0000
     36 H           1.3796    0.2190   -3.1768 H       1  UNL1        0.0000
     37 H           0.9930   -0.8122    0.9404 H       1  UNL1        0.0000
     38 H          -1.0628   -0.9845    2.5543 H       1  UNL1        0.0000
     39 H           3.0769   -2.2975   -2.1718 H       1  UNL1        0.0000
     40 H           5.4726   -2.8116   -1.8907 H       1  UNL1        0.0000
     41 H           6.8814   -1.4152   -0.4356 H       1  UNL1        0.0000
     42 H           7.1570    0.4952    1.0701 H       1  UNL1        0.0000
     43 H           6.2383    2.4578    2.2336 H       1  UNL1        0.0000
     44 H           3.8498    3.0661    1.9521 H       1  UNL1        0.0000
     45 H           2.3909    1.7179    0.5233 H       1  UNL1        0.0000
@<TRIPOS>BOND
     1     1     2    1
     2     2     3    2
     3     3     4   ar
     4     4     5    1
     5     5     6    2
     6     6     7    1
     7     7     8    1
     8     8     9   ar
     9     9    10   ar
    10    10    11   ar
    11    11    12   ar
    12    12    13   ar
    13    13    14   ar
    14    14    15   ar
    15    15    16   ar
    16    16    17   ar
    17    17    18    2
    18    13    19    1
    19    19    20   ar
    20    20    21   ar
    21    21    22   ar
    22    22    23   ar
    23    23    24   ar
    24    24    25   ar
    25    25    26   ar
    26    26    27   ar
    27    27    28   ar
    28    18     1    1
    29    28    19   ar
    30    17     3   ar
    31    28    23   ar
    32     8     4   ar
    33    16     9   ar
    34    15    11   ar
    35     1    29    1
    36     1    30    1
    37     2    31    1
    38     5    32    1
    39     6    33    1
    40     7    34    1
    41     7    35    1
    42    12    36    1
    43    14    37    1
    44    18    38    1
    45    20    39    1
    46    21    40    1
    47    22    41    1
    48    24    42    1
    49    25    43    1
    50    26    44    1
    51    27    45    1
