@<TRIPOS>MOLECULE
*****
 32 36 0 0 0
SMALL
GASTEIGER

@<TRIPOS>ATOM
      1 C          -5.0868    0.0288   -1.7291 C.ar    1  UNL1        0.0295
      2 C          -3.7541   -0.2809   -1.9535 C.ar    1  UNL1       -0.0196
      3 C          -2.8971    0.0068   -0.8933 C.ar    1  UNL1        0.0504
      4 N          -1.5386   -0.1581   -0.7734 N.ar    1  UNL1       -0.3535
      5 C          -1.0952    0.2437    0.4703 C.ar    1  UNL1        0.0598
      6 C           0.1914    0.2465    1.0405 C.ar    1  UNL1        0.0439
      7 C           1.3741   -0.2929    0.3827 C.ar    1  UNL1        0.0950
      8 C           1.4123   -1.5499   -0.2007 C.ar    1  UNL1        0.0562
      9 N           2.5050   -2.0392   -0.8267 N.ar    1  UNL1       -0.2310
     10 C           3.5921   -1.2584   -0.8415 C.ar    1  UNL1        0.1977
     11 N           4.6923   -1.7188   -1.4515 N.ar    1  UNL1       -0.2316
     12 C           5.7749   -0.9148   -1.4462 C.ar    1  UNL1        0.0482
     13 C           5.7612    0.3253   -0.8475 C.ar    1  UNL1        0.0482
     14 N           4.6640    0.8106   -0.2317 N.ar    1  UNL1       -0.2316
     15 C           3.5758    0.0295   -0.2227 C.ar    1  UNL1        0.1983
     16 N           2.4727    0.4948    0.3799 N.ar    1  UNL1       -0.2230
     17 C           0.2415    0.8250    2.3105 C.ar    1  UNL1        0.0388
     18 N          -0.8168    1.3052    3.0057 N.ar    1  UNL1       -0.2619
     19 C          -2.0434    1.2583    2.4384 C.ar    1  UNL1        0.0374
     20 C          -2.2146    0.7351    1.1507 C.ar    1  UNL1        0.0276
     21 C          -3.3510    0.5678    0.2980 C.ar    1  UNL1        0.0270
     22 C          -4.7182    0.8475    0.4229 C.ar    1  UNL1        0.0373
     23 N          -5.5739    0.5717   -0.5922 N.ar    1  UNL1       -0.2625
     24 H          -5.8324   -0.1603   -2.4976 H       1  UNL1        0.0830
     25 H          -3.4162   -0.7123   -2.8867 H       1  UNL1        0.0653
     26 H          -0.9479   -0.5098   -1.5139 H       1  UNL1        0.1659
     27 H           0.5598   -2.2218   -0.1743 H       1  UNL1        0.0852
     28 H           6.6593   -1.3010   -1.9408 H       1  UNL1        0.0846
     29 H           6.6341    0.9688   -0.8449 H       1  UNL1        0.0846
     30 H           1.1919    0.9106    2.8364 H       1  UNL1        0.0837
     31 H          -2.8606    1.6556    3.0302 H       1  UNL1        0.0836
     32 H          -5.1557    1.2866    1.3123 H       1  UNL1        0.0836
@<TRIPOS>BOND
     1     1     2   ar
     2     2     3   ar
     3     3     4   ar
     4     4     5   ar
     5     5     6   ar
     6     6     7    1
     7     7     8   ar
     8     8     9   ar
     9     9    10   ar
    10    10    11   ar
    11    11    12   ar
    12    12    13   ar
    13    13    14   ar
    14    14    15   ar
    15    15    16   ar
    16     6    17   ar
    17    17    18   ar
    18    18    19   ar
    19    19    20   ar
    20    20    21   ar
    21    21    22   ar
    22    22    23   ar
    23    23     1   ar
    24    21     3   ar
    25    20     5   ar
    26    16     7   ar
    27    15    10   ar
    28     1    24    1
    29     2    25    1
    30     4    26    1
    31     8    27    1
    32    12    28    1
    33    13    29    1
    34    17    30    1
    35    19    31    1
    36    22    32    1
