@<TRIPOS>MOLECULE
*****
 26 29 0 0 0
SMALL
GASTEIGER

@<TRIPOS>ATOM
      1 C           3.9762    1.2229    0.6794 C.ar    1  UNL1        0.0295
      2 C           2.6722    1.5688    0.9994 C.ar    1  UNL1       -0.0196
      3 C           1.6934    0.7417    0.4525 C.ar    1  UNL1        0.0504
      4 N           0.3247    0.7846    0.5632 N.ar    1  UNL1       -0.3535
      5 C          -0.2613   -0.2322   -0.1588 C.ar    1  UNL1        0.0584
      6 C          -1.6029   -0.5843   -0.3456 C.ar    1  UNL1        0.0287
      7 C          -2.6662    0.1928    0.2279 C.ar    1  UNL1        0.0442
      8 C          -2.9557    1.5712    0.1610 C.ar    1  UNL1        0.0778
      9 N          -4.0444    1.8917    0.8640 N.ar    1  UNL1       -0.0862
     10 O          -4.5030    0.6944    1.3923 O.2     1  UNL1       -0.3623
     11 C          -3.6800   -0.3131    1.0044 C.ar    1  UNL1        0.1320
     12 C          -1.8157   -1.7187   -1.1213 C.ar    1  UNL1        0.0374
     13 N          -0.8385   -2.4634   -1.6874 N.ar    1  UNL1       -0.2619
     14 C           0.4540   -2.0983   -1.5026 C.ar    1  UNL1        0.0374
     15 C           0.7774   -0.9739   -0.7301 C.ar    1  UNL1        0.0275
     16 C           2.0091   -0.3514   -0.3529 C.ar    1  UNL1        0.0269
     17 C           3.3597   -0.6164   -0.6143 C.ar    1  UNL1        0.0373
     18 N           4.3309    0.1753   -0.0961 N.ar    1  UNL1       -0.2625
     19 H           4.8095    1.8094    1.0590 H       1  UNL1        0.0830
     20 H           2.4432    2.4191    1.6283 H       1  UNL1        0.0653
     21 H          -0.1813    1.4641    1.1140 H       1  UNL1        0.1659
     22 H          -2.4290    2.3541   -0.3670 H       1  UNL1        0.0870
     23 H          -3.9458   -1.2952    1.3681 H       1  UNL1        0.1064
     24 H          -2.8222   -2.0736   -1.3317 H       1  UNL1        0.0836
     25 H           1.2012   -2.7243   -1.9780 H       1  UNL1        0.0836
     26 H           3.6944   -1.4453   -1.2277 H       1  UNL1        0.0836
@<TRIPOS>BOND
     1     1     2   ar
     2     2     3   ar
     3     3     4   ar
     4     4     5   ar
     5     5     6   ar
     6     6     7    1
     7     7     8   ar
     8     8     9   ar
     9     9    10   ar
    10    10    11   ar
    11     6    12   ar
    12    12    13   ar
    13    13    14   ar
    14    14    15   ar
    15    15    16   ar
    16    16    17   ar
    17    17    18   ar
    18    18     1   ar
    19    16     3   ar
    20    15     5   ar
    21    11     7   ar
    22     1    19    1
    23     2    20    1
    24     4    21    1
    25     8    22    1
    26    11    23    1
    27    12    24    1
    28    14    25    1
    29    17    26    1
