@<TRIPOS>MOLECULE
*****
 44 51 0 0 0
SMALL
GASTEIGER

@<TRIPOS>ATOM
      1 C           6.9287   -0.0593   -0.5617 C.ar    1  UNL1        0.0946
      2 C           6.3352    1.1642   -0.7904 C.ar    1  UNL1        0.0002
      3 C           4.9664    0.8911   -0.5875 C.ar    1  UNL1        0.0861
      4 N           3.7060    1.4657   -0.5959 N.ar    1  UNL1       -0.3511
      5 C           2.7535    0.5018   -0.2720 C.ar    1  UNL1        0.0596
      6 C           3.4927   -0.6534   -0.0744 C.ar    1  UNL1        0.0539
      7 C           2.8955   -1.8686    0.2718 C.ar    1  UNL1        0.0331
      8 C           3.3938   -3.1068    0.5126 C.ar    1  UNL1        0.1002
      9 O           2.3260   -3.9173    0.8103 O.2     1  UNL1       -0.4698
     10 C           1.1881   -3.1461    0.7429 C.ar    1  UNL1        0.1000
     11 C           1.4998   -1.8463    0.4068 C.ar    1  UNL1        0.0284
     12 C           0.6213   -0.7455    0.2364 C.ar    1  UNL1       -0.0040
     13 C          -0.8079   -0.8367    0.4012 C.ar    1  UNL1       -0.0449
     14 C          -1.6882    0.2534    0.2285 C.ar    1  UNL1       -0.0085
     15 C          -3.1218    0.1415    0.3980 C.ar    1  UNL1       -0.0091
     16 C          -3.7690    0.1622    1.6604 C.ar    1  UNL1       -0.0534
     17 C          -5.1860    0.0495    1.8418 C.ar    1  UNL1       -0.0606
     18 C          -6.1063   -0.0998    0.7829 C.ar    1  UNL1       -0.0535
     19 C          -5.4694   -0.1267   -0.4574 C.ar    1  UNL1       -0.0103
     20 C          -6.1594   -0.2681   -1.6359 C.ar    1  UNL1       -0.0166
     21 S          -5.0940   -0.2691   -2.9847 S.2     1  UNL1       -0.1039
     22 C          -3.7066   -0.0817   -1.9856 C.ar    1  UNL1       -0.0160
     23 C          -4.0439   -0.0136   -0.6531 C.ar    1  UNL1       -0.0032
     24 C          -1.0125    1.4407   -0.1133 C.ar    1  UNL1       -0.0025
     25 C          -1.6661    2.6359   -0.3181 C.ar    1  UNL1       -0.0160
     26 S          -0.5823    3.8957   -0.7220 S.2     1  UNL1       -0.1038
     27 C           0.7763    2.8499   -0.6186 C.ar    1  UNL1       -0.0159
     28 C           0.4327    1.5597   -0.2851 C.ar    1  UNL1       -0.0006
     29 C           1.3340    0.4835   -0.1243 C.ar    1  UNL1        0.0151
     30 C           4.8320   -0.4157   -0.2656 C.ar    1  UNL1        0.1606
     31 O           6.0343   -1.0403   -0.2397 O.2     1  UNL1       -0.4607
     32 H           7.9592   -0.3884   -0.5883 H       1  UNL1        0.1030
     33 H           6.8221    2.0897   -1.0581 H       1  UNL1        0.0670
     34 H           3.5590    2.4407   -0.8121 H       1  UNL1        0.1660
     35 H           4.3696   -3.5704    0.5233 H       1  UNL1        0.1036
     36 H           0.2725   -3.6779    0.9588 H       1  UNL1        0.1036
     37 H          -1.2452   -1.7989    0.6686 H       1  UNL1        0.0630
     38 H          -3.1551    0.2754    2.5559 H       1  UNL1        0.0624
     39 H          -5.5729    0.0812    2.8612 H       1  UNL1        0.0618
     40 H          -7.1733   -0.1839    0.9411 H       1  UNL1        0.0624
     41 H          -7.2243   -0.3726   -1.7913 H       1  UNL1        0.0699
     42 H          -2.7277   -0.0317   -2.4430 H       1  UNL1        0.0700
     43 H          -2.7248    2.8500   -0.2570 H       1  UNL1        0.0700
     44 H           1.7382    3.2871   -0.8164 H       1  UNL1        0.0700
@<TRIPOS>BOND
     1     1     2   ar
     2     2     3   ar
     3     3     4   ar
     4     4     5   ar
     5     5     6   ar
     6     6     7   ar
     7     7     8   ar
     8     8     9   ar
     9     9    10   ar
    10    10    11   ar
    11    11    12   ar
    12    12    13   ar
    13    13    14   ar
    14    14    15    1
    15    15    16   ar
    16    16    17   ar
    17    17    18   ar
    18    18    19   ar
    19    19    20   ar
    20    20    21   ar
    21    21    22   ar
    22    22    23   ar
    23    14    24   ar
    24    24    25   ar
    25    25    26   ar
    26    26    27   ar
    27    27    28   ar
    28    28    29   ar
    29     6    30   ar
    30    30    31   ar
    31    31     1   ar
    32    30     3   ar
    33    29     5   ar
    34    11     7   ar
    35    29    12   ar
    36    23    15   ar
    37    28    24   ar
    38    23    19   ar
    39     1    32    1
    40     2    33    1
    41     4    34    1
    42     8    35    1
    43    10    36    1
    44    13    37    1
    45    16    38    1
    46    17    39    1
    47    18    40    1
    48    20    41    1
    49    22    42    1
    50    25    43    1
    51    27    44    1
