@<TRIPOS>MOLECULE
*****
 26 29 0 0 0
SMALL
GASTEIGER

@<TRIPOS>ATOM
      1 C          -3.8687    1.4509    1.0499 C.ar    1  UNL1        0.0295
      2 C          -2.5283    1.8041    1.0807 C.ar    1  UNL1       -0.0196
      3 C          -1.6588    0.8589    0.5407 C.ar    1  UNL1        0.0504
      4 N          -0.2923    0.8791    0.4012 N.ar    1  UNL1       -0.3535
      5 C           0.1641   -0.2852   -0.1763 C.ar    1  UNL1        0.0598
      6 C           1.4554   -0.7186   -0.5030 C.ar    1  UNL1        0.0428
      7 C           2.6418    0.0471   -0.1999 C.ar    1  UNL1        0.0815
      8 C           2.9094    0.5973    1.0397 C.ar    1  UNL1        0.0032
      9 S           4.4204    1.4110    1.0051 S.2     1  UNL1       -0.0833
     10 C           4.6121    0.9391   -0.6321 C.ar    1  UNL1        0.0654
     11 N           3.6333    0.2290   -1.1480 N.ar    1  UNL1       -0.2473
     12 C           1.5186   -1.9403   -1.1631 C.ar    1  UNL1        0.0387
     13 N           0.4523   -2.7241   -1.4527 N.ar    1  UNL1       -0.2619
     14 C          -0.7848   -2.2978   -1.1010 C.ar    1  UNL1        0.0374
     15 C          -0.9632   -1.0625   -0.4619 C.ar    1  UNL1        0.0276
     16 C          -2.1101   -0.3471    0.0071 C.ar    1  UNL1        0.0270
     17 C          -3.4869   -0.6062    0.0208 C.ar    1  UNL1        0.0373
     18 N          -4.3534    0.2953    0.5456 N.ar    1  UNL1       -0.2625
     19 H          -4.6239    2.1237    1.4491 H       1  UNL1        0.0830
     20 H          -2.1937    2.7463    1.4943 H       1  UNL1        0.0653
     21 H           0.2964    1.6542    0.6712 H       1  UNL1        0.1659
     22 H           2.3230    0.5538    1.9465 H       1  UNL1        0.0715
     23 H           5.4918    1.2105   -1.2015 H       1  UNL1        0.0907
     24 H           2.4766   -2.3455   -1.4831 H       1  UNL1        0.0837
     25 H          -1.6076   -2.9573   -1.3537 H       1  UNL1        0.0836
     26 H          -3.9235   -1.5158   -0.3756 H       1  UNL1        0.0836
@<TRIPOS>BOND
     1     1     2   ar
     2     2     3   ar
     3     3     4   ar
     4     4     5   ar
     5     5     6   ar
     6     6     7    1
     7     7     8   ar
     8     8     9   ar
     9     9    10   ar
    10    10    11   ar
    11     6    12   ar
    12    12    13   ar
    13    13    14   ar
    14    14    15   ar
    15    15    16   ar
    16    16    17   ar
    17    17    18   ar
    18    18     1   ar
    19    16     3   ar
    20    15     5   ar
    21    11     7   ar
    22     1    19    1
    23     2    20    1
    24     4    21    1
    25     8    22    1
    26    10    23    1
    27    12    24    1
    28    14    25    1
    29    17    26    1
