@<TRIPOS>MOLECULE
*****
 25 28 0 0 0
SMALL
GASTEIGER

@<TRIPOS>ATOM
      1 C          -3.8508    0.1114    1.6573 C.ar    1  UNL1        0.0295
      2 C          -2.5255    0.3081    2.0134 C.ar    1  UNL1       -0.0196
      3 C          -1.6062    0.1207    0.9837 C.ar    1  UNL1        0.0504
      4 N          -0.2377    0.2291    0.9783 N.ar    1  UNL1       -0.3534
      5 C           0.2760   -0.0465   -0.2707 C.ar    1  UNL1        0.0614
      6 C           1.5960   -0.0601   -0.7419 C.ar    1  UNL1        0.0644
      7 C           2.7307    0.2454    0.1033 C.ar    1  UNL1        0.2053
      8 N           4.0246    0.2286   -0.3722 N.ar    1  UNL1       -0.1941
      9 C           4.7178    0.5535    0.6889 C.ar    1  UNL1        0.2147
     10 O           3.9618    0.7728    1.7921 O.2     1  UNL1       -0.3411
     11 N           2.6370    0.5687    1.4069 N.ar    1  UNL1       -0.0563
     12 C           1.7298   -0.3903   -2.0855 C.ar    1  UNL1        0.0404
     13 N           0.7051   -0.6851   -2.9230 N.ar    1  UNL1       -0.2618
     14 C          -0.5614   -0.6642   -2.4402 C.ar    1  UNL1        0.0374
     15 C          -0.8098   -0.3437   -1.0985 C.ar    1  UNL1        0.0276
     16 C          -1.9967   -0.2379   -0.3059 C.ar    1  UNL1        0.0270
     17 C          -3.3631   -0.4125   -0.5617 C.ar    1  UNL1        0.0373
     18 N          -4.2781   -0.2360    0.4234 N.ar    1  UNL1       -0.2625
     19 H          -4.6415    0.2347    2.3934 H       1  UNL1        0.0830
     20 H          -2.2362    0.5864    3.0184 H       1  UNL1        0.0653
     21 H           0.3318    0.4778    1.7779 H       1  UNL1        0.1659
     22 H           5.7861    0.6665    0.7963 H       1  UNL1        0.1283
     23 H           2.7119   -0.4302   -2.5533 H       1  UNL1        0.0837
     24 H          -1.3477   -0.9066   -3.1465 H       1  UNL1        0.0836
     25 H          -3.7539   -0.6905   -1.5339 H       1  UNL1        0.0836
@<TRIPOS>BOND
     1     1     2   ar
     2     2     3   ar
     3     3     4   ar
     4     4     5   ar
     5     5     6   ar
     6     6     7    1
     7     7     8   ar
     8     8     9   ar
     9     9    10   ar
    10    10    11   ar
    11     6    12   ar
    12    12    13   ar
    13    13    14   ar
    14    14    15   ar
    15    15    16   ar
    16    16    17   ar
    17    17    18   ar
    18    18     1   ar
    19    16     3   ar
    20    15     5   ar
    21    11     7   ar
    22     1    19    1
    23     2    20    1
    24     4    21    1
    25     9    22    1
    26    12    23    1
    27    14    24    1
    28    17    25    1
