@<TRIPOS>MOLECULE
*****
 43 49 0 0 0
SMALL
GASTEIGER

@<TRIPOS>ATOM
      1 C           6.8678    0.1241   -1.3948 C.ar    1  UNL1        0.0042
      2 C           6.3274    0.7079   -0.2645 C.ar    1  UNL1       -0.0204
      3 C           4.9461    0.4051   -0.3316 C.ar    1  UNL1        0.0653
      4 N           3.7680    0.5866    0.3348 N.ar    1  UNL1       -0.3524
      5 C           2.7531   -0.0335   -0.3682 C.ar    1  UNL1        0.0574
      6 C           3.3152   -0.6217   -1.5135 C.ar    1  UNL1        0.0242
      7 C           2.5052   -1.3245   -2.4192 C.ar    1  UNL1       -0.0500
      8 C           1.1309   -1.4342   -2.1712 C.ar    1  UNL1       -0.0532
      9 C           0.5358   -0.8628   -1.0431 C.ar    1  UNL1       -0.0147
     10 C          -0.8835   -1.0104   -0.8450 C.ar    1  UNL1       -0.0456
     11 C          -1.6208   -0.4802    0.2454 C.ar    1  UNL1       -0.0076
     12 C          -3.0464   -0.6478    0.4190 C.ar    1  UNL1       -0.0090
     13 C          -3.6519   -1.8728    0.8026 C.ar    1  UNL1       -0.0534
     14 C          -5.0625   -2.0586    0.9747 C.ar    1  UNL1       -0.0606
     15 C          -6.0201   -1.0421    0.7766 C.ar    1  UNL1       -0.0535
     16 C          -5.4271    0.1598    0.3909 C.ar    1  UNL1       -0.0103
     17 C          -6.1604    1.2915    0.1329 C.ar    1  UNL1       -0.0166
     18 S          -5.1453    2.5994   -0.3289 S.2     1  UNL1       -0.1039
     19 C          -3.7223    1.6444   -0.1855 C.ar    1  UNL1       -0.0160
     20 C          -4.0079    0.3592    0.2160 C.ar    1  UNL1       -0.0032
     21 C          -0.7791    0.2048    1.1267 C.ar    1  UNL1        0.0078
     22 C          -1.1509    0.8230    2.2961 C.ar    1  UNL1        0.0100
     23 N          -0.0162    1.3680    2.8456 N.ar    1  UNL1       -0.3659
     24 C           1.0770    1.0995    2.0467 C.ar    1  UNL1        0.0101
     25 C           0.6386    0.3714    0.9646 C.ar    1  UNL1        0.0097
     26 C           1.3729   -0.1436   -0.1183 C.ar    1  UNL1        0.0152
     27 C           4.6997   -0.3193   -1.4477 C.ar    1  UNL1        0.0721
     28 N           5.8789   -0.5016   -2.1168 N.ar    1  UNL1       -0.3590
     29 H           7.8894    0.1017   -1.7513 H       1  UNL1        0.0807
     30 H           6.8576    1.2683    0.4927 H       1  UNL1        0.0653
     31 H           3.6970    1.0999    1.1996 H       1  UNL1        0.1660
     32 H           2.9347   -1.7804   -3.3059 H       1  UNL1        0.0625
     33 H           0.5254   -1.9836   -2.8899 H       1  UNL1        0.0624
     34 H          -1.4477   -1.5688   -1.5955 H       1  UNL1        0.0630
     35 H          -3.0049   -2.7321    0.9882 H       1  UNL1        0.0624
     36 H          -5.4122   -3.0462    1.2774 H       1  UNL1        0.0618
     37 H          -7.0815   -1.2023    0.9104 H       1  UNL1        0.0624
     38 H          -7.2310    1.4332    0.1835 H       1  UNL1        0.0699
     39 H          -2.7602    2.0886   -0.4029 H       1  UNL1        0.0700
     40 H          -2.1085    0.9291    2.7885 H       1  UNL1        0.0813
     41 H           0.0137    1.8877    3.7132 H       1  UNL1        0.1648
     42 H           2.0437    1.4624    2.3542 H       1  UNL1        0.0813
     43 H           5.9623   -1.0131   -2.9863 H       1  UNL1        0.1654
@<TRIPOS>BOND
     1     1     2   ar
     2     2     3   ar
     3     3     4   ar
     4     4     5   ar
     5     5     6   ar
     6     6     7   ar
     7     7     8   ar
     8     8     9   ar
     9     9    10   ar
    10    10    11   ar
    11    11    12    1
    12    12    13   ar
    13    13    14   ar
    14    14    15   ar
    15    15    16   ar
    16    16    17   ar
    17    17    18   ar
    18    18    19   ar
    19    19    20   ar
    20    11    21   ar
    21    21    22   ar
    22    22    23   ar
    23    23    24   ar
    24    24    25   ar
    25    25    26   ar
    26     6    27   ar
    27    27    28   ar
    28    28     1   ar
    29    27     3   ar
    30    26     5   ar
    31    26     9   ar
    32    20    12   ar
    33    25    21   ar
    34    20    16   ar
    35     1    29    1
    36     2    30    1
    37     4    31    1
    38     7    32    1
    39     8    33    1
    40    10    34    1
    41    13    35    1
    42    14    36    1
    43    15    37    1
    44    17    38    1
    45    19    39    1
    46    22    40    1
    47    23    41    1
    48    24    42    1
    49    28    43    1
