@<TRIPOS>MOLECULE
*****
 36 41 0 0 0
SMALL
GASTEIGER

@<TRIPOS>ATOM
      1 C          -6.4112   -0.1830    0.2505 C.ar    1  UNL1        0.0042
      2 C          -5.7670    0.2695   -0.8856 C.ar    1  UNL1       -0.0204
      3 C          -4.3886    0.1687   -0.5797 C.ar    1  UNL1        0.0653
      4 N          -3.1480    0.3905   -1.1043 N.ar    1  UNL1       -0.3524
      5 C          -2.2013    0.0349   -0.1612 C.ar    1  UNL1        0.0589
      6 C          -2.8612   -0.4221    0.9858 C.ar    1  UNL1        0.0243
      7 C          -2.1149   -0.8456    2.0961 C.ar    1  UNL1       -0.0500
      8 C          -0.7138   -0.8024    2.0340 C.ar    1  UNL1       -0.0532
      9 C          -0.0368   -0.3479    0.8942 C.ar    1  UNL1       -0.0131
     10 C           1.3827   -0.3160    0.8619 C.ar    1  UNL1       -0.0426
     11 C           2.1993    0.1214   -0.2296 C.ar    1  UNL1        0.0291
     12 C           3.6782    0.1068   -0.1406 C.ar    1  UNL1        0.0731
     13 C           4.5611    0.5098   -1.1422 C.ar    1  UNL1       -0.0356
     14 C           5.9405    0.4450   -0.9283 C.ar    1  UNL1       -0.0583
     15 C           6.4246   -0.0211    0.2825 C.ar    1  UNL1       -0.0436
     16 C           5.5027   -0.4050    1.2334 C.ar    1  UNL1        0.0283
     17 N           4.1644   -0.3507    1.0480 N.ar    1  UNL1       -0.2549
     18 C           1.4489    0.5558   -1.3677 C.ar    1  UNL1        0.1097
     19 N           1.9277    1.0192   -2.5375 N.ar    1  UNL1       -0.1901
     20 S           0.6441    1.3814   -3.5093 S.2     1  UNL1        0.1165
     21 N          -0.6126    0.9770   -2.5178 N.ar    1  UNL1       -0.1901
     22 C          -0.0760    0.5334   -1.3634 C.ar    1  UNL1        0.1102
     23 C          -0.7965    0.0787   -0.2244 C.ar    1  UNL1        0.0343
     24 C          -4.2429   -0.3202    0.6771 C.ar    1  UNL1        0.0721
     25 N          -5.4865   -0.5424    1.2026 N.ar    1  UNL1       -0.3590
     26 H          -7.4677   -0.2807    0.4639 H       1  UNL1        0.0807
     27 H          -6.2288    0.6197   -1.7981 H       1  UNL1        0.0653
     28 H          -2.9659    0.7550   -2.0313 H       1  UNL1        0.1660
     29 H          -2.6099   -1.2030    2.9939 H       1  UNL1        0.0625
     30 H          -0.1525   -1.1354    2.9062 H       1  UNL1        0.0624
     31 H           1.9037   -0.6601    1.7609 H       1  UNL1        0.0631
     32 H           4.2203    0.8795   -2.1009 H       1  UNL1        0.0639
     33 H           6.6264    0.7596   -1.7101 H       1  UNL1        0.0619
     34 H           7.4885   -0.0833    0.4787 H       1  UNL1        0.0633
     35 H           5.8198   -0.7791    2.2025 H       1  UNL1        0.0830
     36 H          -5.6509   -0.9077    2.1321 H       1  UNL1        0.1654
@<TRIPOS>BOND
     1     1     2   ar
     2     2     3   ar
     3     3     4   ar
     4     4     5   ar
     5     5     6   ar
     6     6     7   ar
     7     7     8   ar
     8     8     9   ar
     9     9    10   ar
    10    10    11   ar
    11    11    12    1
    12    12    13   ar
    13    13    14   ar
    14    14    15   ar
    15    15    16   ar
    16    16    17   ar
    17    11    18   ar
    18    18    19   ar
    19    19    20   ar
    20    20    21   ar
    21    21    22   ar
    22    22    23   ar
    23     6    24   ar
    24    24    25   ar
    25    25     1   ar
    26    24     3   ar
    27    23     5   ar
    28    23     9   ar
    29    17    12   ar
    30    22    18   ar
    31     1    26    1
    32     2    27    1
    33     4    28    1
    34     7    29    1
    35     8    30    1
    36    10    31    1
    37    13    32    1
    38    14    33    1
    39    15    34    1
    40    16    35    1
    41    25    36    1
