@<TRIPOS>MOLECULE
*****
 36 42 0 0 0
SMALL
GASTEIGER

@<TRIPOS>ATOM
      1 C           6.9087    0.3197   -0.9043 C.ar    1  UNL1       -0.0217
      2 C           6.3895   -0.5519    0.0480 C.ar    1  UNL1       -0.0307
      3 C           4.9750   -0.4570    0.0407 C.ar    1  UNL1        0.0552
      4 N           3.8374   -0.9401    0.6246 N.ar    1  UNL1       -0.3528
      5 C           2.7348   -0.3492    0.0738 C.ar    1  UNL1        0.0636
      6 C           3.2153    0.5098   -0.8610 C.ar    1  UNL1        0.0523
      7 S           2.1328    1.4282   -1.7562 S.2     1  UNL1       -0.0855
      8 C           0.8262    0.6610   -0.8631 C.ar    1  UNL1        0.0231
      9 C          -0.5725    0.8673   -0.9887 C.ar    1  UNL1       -0.0389
     10 C          -1.5081    0.1649   -0.1814 C.ar    1  UNL1       -0.0065
     11 C          -2.9423    0.3669   -0.3134 C.ar    1  UNL1        0.0109
     12 C          -3.6779   -0.0906   -1.4329 C.ar    1  UNL1       -0.0518
     13 C          -5.0709    0.1030   -1.5905 C.ar    1  UNL1       -0.0590
     14 C          -5.8611    0.7778   -0.6461 C.ar    1  UNL1       -0.0335
     15 C          -5.1861    1.2701    0.4960 C.ar    1  UNL1        0.1005
     16 N          -5.7561    1.9411    1.5085 N.ar    1  UNL1       -0.1908
     17 S          -4.5394    2.2956    2.5804 S.2     1  UNL1        0.1165
     18 N          -3.2386    1.6101    1.8146 N.ar    1  UNL1       -0.1902
     19 C          -3.6982    1.0675    0.6728 C.ar    1  UNL1        0.1076
     20 C          -0.9146   -0.7429    0.7227 C.ar    1  UNL1       -0.0024
     21 C          -1.6318   -1.5486    1.5846 C.ar    1  UNL1       -0.0160
     22 S          -0.6155   -2.5494    2.5573 S.2     1  UNL1       -0.1038
     23 C           0.8177   -1.9271    1.8341 C.ar    1  UNL1       -0.0159
     24 C           0.4753   -0.9980    0.8960 C.ar    1  UNL1       -0.0001
     25 C           1.3423   -0.2449    0.0547 C.ar    1  UNL1        0.0214
     26 C           4.5610    0.4419   -0.8787 C.ar    1  UNL1        0.0512
     27 S           5.7144    1.2330   -1.7883 S.2     1  UNL1       -0.0940
     28 H           7.9511    0.4819   -1.1430 H       1  UNL1        0.0694
     29 H           6.9883   -1.1913    0.6830 H       1  UNL1        0.0644
     30 H           3.8228   -1.6332    1.3597 H       1  UNL1        0.1660
     31 H          -0.9332    1.5923   -1.7169 H       1  UNL1        0.0635
     32 H          -3.1470   -0.6292   -2.2205 H       1  UNL1        0.0624
     33 H          -5.5522   -0.2897   -2.4870 H       1  UNL1        0.0618
     34 H          -6.9269    0.9198   -0.7788 H       1  UNL1        0.0640
     35 H          -2.7022   -1.6179    1.7200 H       1  UNL1        0.0700
     36 H           1.7823   -2.2907    2.1504 H       1  UNL1        0.0700
@<TRIPOS>BOND
     1     1     2   ar
     2     2     3   ar
     3     3     4   ar
     4     4     5   ar
     5     5     6   ar
     6     6     7   ar
     7     7     8   ar
     8     8     9   ar
     9     9    10   ar
    10    10    11    1
    11    11    12   ar
    12    12    13   ar
    13    13    14   ar
    14    14    15   ar
    15    15    16   ar
    16    16    17   ar
    17    17    18   ar
    18    18    19   ar
    19    10    20   ar
    20    20    21   ar
    21    21    22   ar
    22    22    23   ar
    23    23    24   ar
    24    24    25   ar
    25     6    26   ar
    26    26    27   ar
    27    27     1   ar
    28    26     3   ar
    29    25     5   ar
    30    25     8   ar
    31    19    11   ar
    32    24    20   ar
    33    19    15   ar
    34     1    28    1
    35     2    29    1
    36     4    30    1
    37     9    31    1
    38    12    32    1
    39    13    33    1
    40    14    34    1
    41    21    35    1
    42    23    36    1
