@<TRIPOS>MOLECULE
*****
 28 32 0 0 0
SMALL
GASTEIGER

@<TRIPOS>ATOM
      1 C           5.0528    0.4364   -0.0068 C.ar    1  UNL1        0.0042
      2 C           4.8597   -0.7992   -0.6322 C.ar    1  UNL1       -0.0203
      3 C           3.4547   -0.9549   -0.6993 C.ar    1  UNL1        0.0668
      4 N           2.3777   -1.7134   -1.0751 N.ar    1  UNL1       -0.3517
      5 C           1.2191   -1.0656   -0.7366 C.ar    1  UNL1        0.0674
      6 C          -0.1963   -1.0489   -0.7162 C.ar    1  UNL1       -0.0118
      7 C          -0.5556    0.1618   -0.0988 C.ar    1  UNL1        0.0562
      8 N           0.6018    0.8603    0.2458 N.ar    1  UNL1       -0.3509
      9 C           1.6061    0.0813   -0.1579 C.ar    1  UNL1        0.0890
     10 C           2.9339    0.1496   -0.1344 C.ar    1  UNL1        0.0885
     11 N           3.8386    1.0294    0.3043 N.ar    1  UNL1       -0.3578
     12 C          -1.8653    0.6991    0.1849 C.ar    1  UNL1        0.0438
     13 S          -2.0595    2.2389    0.9678 S.2     1  UNL1       -0.0935
     14 C          -3.7739    2.1652    0.9449 C.ar    1  UNL1       -0.0094
     15 C          -4.1899    1.0060    0.3602 C.ar    1  UNL1        0.0270
     16 S          -5.8565    0.3888    0.0612 S.2     1  UNL1       -0.0961
     17 C          -5.0491   -0.9965   -0.6485 C.ar    1  UNL1       -0.0231
     18 C          -3.6495   -0.9672   -0.6455 C.ar    1  UNL1       -0.0458
     19 C          -3.1143    0.2130   -0.0512 C.ar    1  UNL1        0.0054
     20 H           5.9719    0.9494    0.2457 H       1  UNL1        0.0807
     21 H           5.6305   -1.4725   -0.9803 H       1  UNL1        0.0653
     22 H           2.4316   -2.6128   -1.5319 H       1  UNL1        0.1660
     23 H          -0.8552   -1.8127   -1.0982 H       1  UNL1        0.0660
     24 H           0.6709    1.7597    0.7016 H       1  UNL1        0.1660
     25 H           3.6583    1.9163    0.7559 H       1  UNL1        0.1654
     26 H          -4.3971    2.9510    1.3488 H       1  UNL1        0.0705
     27 H          -5.6766   -1.7842   -1.0429 H       1  UNL1        0.0694
     28 H          -3.0688   -1.7782   -1.0619 H       1  UNL1        0.0629
@<TRIPOS>BOND
     1     1     2   ar
     2     2     3   ar
     3     3     4   ar
     4     4     5   ar
     5     5     6   ar
     6     6     7   ar
     7     7     8   ar
     8     8     9   ar
     9     9    10   ar
    10    10    11   ar
    11     7    12    1
    12    12    13   ar
    13    13    14   ar
    14    14    15   ar
    15    15    16   ar
    16    16    17   ar
    17    17    18   ar
    18    18    19   ar
    19    11     1   ar
    20    19    12   ar
    21    10     3   ar
    22    19    15   ar
    23     9     5   ar
    24     1    20    1
    25     2    21    1
    26     4    22    1
    27     6    23    1
    28     8    24    1
    29    11    25    1
    30    14    26    1
    31    17    27    1
    32    18    28    1
