@<TRIPOS>MOLECULE
*****
 46 51 0 0 0
SMALL
GASTEIGER

@<TRIPOS>ATOM
      1 C           8.0074    0.4236    0.3566 C.ar    1  UNL1        0.0295
      2 C           7.0075    0.9900    1.1324 C.ar    1  UNL1       -0.0196
      3 C           5.7088    0.6653    0.7464 C.ar    1  UNL1        0.0504
      4 N           4.4975    1.0393    1.2782 N.ar    1  UNL1       -0.3540
      5 C           3.4610    0.4801    0.5693 C.ar    1  UNL1        0.0510
      6 C           2.0803    0.5839    0.7453 C.ar    1  UNL1       -0.0117
      7 C           1.2865   -0.1244   -0.1592 C.ar    1  UNL1        0.0730
      8 C          -0.1904   -0.1076   -0.0904 C.ar    1  UNL1        0.0010
      9 C          -0.9374   -1.2492   -0.4155 C.ar    1  UNL1       -0.0476
     10 C          -2.3436   -1.2661   -0.3473 C.ar    1  UNL1       -0.0254
     11 C          -3.0550   -0.1091    0.0238 C.ar    1  UNL1        0.0361
     12 C          -2.3157    1.0409    0.3633 C.ar    1  UNL1       -0.0254
     13 C          -0.9084    1.0358    0.2907 C.ar    1  UNL1       -0.0476
     14 C          -3.0103    2.3229    0.7501 C.3     1  UNL1       -0.0245
     15 C          -4.4575    2.0875    1.1545 C.3     1  UNL1       -0.0332
     16 C          -5.1235    1.1809    0.1330 C.3     1  UNL1        0.0125
     17 N          -4.4558   -0.1189    0.1102 N.pl3   1  UNL1       -0.3294
     18 C          -5.1495   -1.1965   -0.5939 C.3     1  UNL1        0.0125
     19 C          -4.5083   -2.5330   -0.2595 C.3     1  UNL1       -0.0332
     20 C          -3.0646   -2.5316   -0.7380 C.3     1  UNL1       -0.0245
     21 N           1.8152   -0.8860   -1.1530 N.ar    1  UNL1       -0.2542
     22 C           3.1598   -0.9708   -1.3102 C.ar    1  UNL1        0.0380
     23 C           4.0220   -0.2863   -0.4490 C.ar    1  UNL1        0.0270
     24 C           5.4429   -0.1681   -0.3404 C.ar    1  UNL1        0.0269
     25 C           6.5264   -0.6897   -1.0589 C.ar    1  UNL1        0.0373
     26 N           7.8000   -0.3881   -0.7033 N.ar    1  UNL1       -0.2625
     27 H           9.0534    0.6188    0.5804 H       1  UNL1        0.0830
     28 H           7.2298    1.6342    1.9728 H       1  UNL1        0.0653
     29 H           4.3848    1.6434    2.0798 H       1  UNL1        0.1659
     30 H           1.6535    1.1667    1.5518 H       1  UNL1        0.0660
     31 H          -0.4124   -2.1519   -0.7276 H       1  UNL1        0.0627
     32 H          -0.3761    1.9566    0.5198 H       1  UNL1        0.0627
     33 H          -2.9740    3.0054   -0.1082 H       1  UNL1        0.0314
     34 H          -2.4814    2.8034    1.5817 H       1  UNL1        0.0314
     35 H          -4.4957    1.6196    2.1469 H       1  UNL1        0.0283
     36 H          -4.9873    3.0438    1.2244 H       1  UNL1        0.0283
     37 H          -5.1064    1.6356   -0.8658 H       1  UNL1        0.0464
     38 H          -6.1754    1.0492    0.4126 H       1  UNL1        0.0464
     39 H          -5.1363   -1.0143   -1.6762 H       1  UNL1        0.0464
     40 H          -6.2001   -1.2227   -0.2813 H       1  UNL1        0.0464
     41 H          -4.5415   -2.6995    0.8250 H       1  UNL1        0.0283
     42 H          -5.0589   -3.3535   -0.7324 H       1  UNL1        0.0283
     43 H          -3.0386   -2.6183   -1.8314 H       1  UNL1        0.0314
     44 H          -2.5498   -3.4050   -0.3209 H       1  UNL1        0.0314
     45 H           3.5069   -1.5919   -2.1280 H       1  UNL1        0.0836
     46 H           6.4100   -1.3446   -1.9148 H       1  UNL1        0.0836
@<TRIPOS>BOND
     1     1     2   ar
     2     2     3   ar
     3     3     4   ar
     4     4     5   ar
     5     5     6   ar
     6     6     7   ar
     7     7     8    1
     8     8     9   ar
     9     9    10   ar
    10    10    11   ar
    11    11    12   ar
    12    12    13   ar
    13    12    14    1
    14    14    15    1
    15    15    16    1
    16    16    17    1
    17    17    18    1
    18    18    19    1
    19    19    20    1
    20     7    21   ar
    21    21    22   ar
    22    22    23   ar
    23    23    24   ar
    24    24    25   ar
    25    25    26   ar
    26    26     1   ar
    27    24     3   ar
    28    23     5   ar
    29    13     8   ar
    30    20    10    1
    31    17    11    1
    32     1    27    1
    33     2    28    1
    34     4    29    1
    35     6    30    1
    36     9    31    1
    37    13    32    1
    38    14    33    1
    39    14    34    1
    40    15    35    1
    41    15    36    1
    42    16    37    1
    43    16    38    1
    44    18    39    1
    45    18    40    1
    46    19    41    1
    47    19    42    1
    48    20    43    1
    49    20    44    1
    50    22    45    1
    51    25    46    1
