@<TRIPOS>MOLECULE
*****
 41 47 0 0 0
SMALL
GASTEIGER

@<TRIPOS>ATOM
      1 SI         -3.9998   -3.4703   -0.9797 Si      1  UNL1        0.0000
      2 C          -4.8861   -1.8365   -0.7544 C.2     1  UNL1        0.0000
      3 C          -4.0203   -0.8492   -0.4467 C.ar    1  UNL1        0.0000
      4 C          -4.3777    0.5577   -0.2039 C.ar    1  UNL1        0.0000
      5 C          -5.7067    1.1777   -0.2404 C.2     1  UNL1        0.0000
      6 C          -5.7371    2.4982    0.0247 C.2     1  UNL1        0.0000
      7 SI         -4.0028    3.1593    0.3714 Si      1  UNL1        0.0000
      8 C          -3.3885    1.4433    0.0973 C.ar    1  UNL1        0.0000
      9 C          -2.0365    1.0179    0.1762 C.ar    1  UNL1        0.0000
     10 O          -0.9454    1.7992    0.4687 O.2     1  UNL1        0.0000
     11 C           0.1327    0.9602    0.4296 C.ar    1  UNL1        0.0000
     12 C           1.5081    1.1700    0.6393 C.ar    1  UNL1        0.0000
     13 C           2.1789   -0.0294    0.4728 C.ar    1  UNL1        0.0000
     14 S           1.1344   -1.3557    0.0847 S.2     1  UNL1        0.0000
     15 C          -0.2414   -0.3078    0.1270 C.ar    1  UNL1        0.0000
     16 C          -1.6377   -0.2946   -0.0419 C.ar    1  UNL1        0.0000
     17 C          -2.5934   -1.2969   -0.3632 C.ar    1  UNL1        0.0000
     18 C          -2.3882   -2.6043   -0.6052 C.2     1  UNL1        0.0000
     19 C           3.6068   -0.2820    0.5882 C.ar    1  UNL1        0.0000
     20 C           4.1833   -1.1195    1.5747 C.ar    1  UNL1        0.0000
     21 C           5.5914   -1.3487    1.7031 C.ar    1  UNL1        0.0000
     22 C           6.5648   -0.7666    0.8629 C.ar    1  UNL1        0.0000
     23 C           5.9923    0.0550   -0.1087 C.ar    1  UNL1        0.0000
     24 C           6.7455    0.7222   -1.0427 C.ar    1  UNL1        0.0000
     25 S           5.7517    1.6355   -2.1060 S.2     1  UNL1        0.0000
     26 C           4.3100    1.1317   -1.3136 C.ar    1  UNL1        0.0000
     27 C           4.5749    0.2973   -0.2515 C.ar    1  UNL1        0.0000
     28 H          -4.3691   -4.4570    0.0633 H       1  UNL1        0.0000
     29 H          -4.0706   -3.9589   -2.3774 H       1  UNL1        0.0000
     30 H          -5.9551   -1.7645   -0.8711 H       1  UNL1        0.0000
     31 H          -6.5913    0.5966   -0.4670 H       1  UNL1        0.0000
     32 H          -6.6024    3.1411    0.0496 H       1  UNL1        0.0000
     33 H          -3.5997    4.1367   -0.6717 H       1  UNL1        0.0000
     34 H          -3.8991    3.6390    1.7733 H       1  UNL1        0.0000
     35 H           1.9706    2.1147    0.8911 H       1  UNL1        0.0000
     36 H          -1.4509   -3.1364   -0.5998 H       1  UNL1        0.0000
     37 H           3.5253   -1.6182    2.2878 H       1  UNL1        0.0000
     38 H           5.9285   -2.0125    2.5003 H       1  UNL1        0.0000
     39 H           7.6243   -0.9544    0.9776 H       1  UNL1        0.0000
     40 H           7.8191    0.7281   -1.1711 H       1  UNL1        0.0000
     41 H           3.3572    1.4819   -1.6857 H       1  UNL1        0.0000
@<TRIPOS>BOND
     1     1     2    1
     2     2     3    2
     3     3     4   ar
     4     4     5    1
     5     5     6    2
     6     6     7    1
     7     7     8    1
     8     8     9   ar
     9     9    10   ar
    10    10    11   ar
    11    11    12   ar
    12    12    13   ar
    13    13    14   ar
    14    14    15   ar
    15    15    16   ar
    16    16    17   ar
    17    17    18    2
    18    13    19    1
    19    19    20   ar
    20    20    21   ar
    21    21    22   ar
    22    22    23   ar
    23    23    24   ar
    24    24    25   ar
    25    25    26   ar
    26    26    27   ar
    27    18     1    1
    28    27    19   ar
    29    17     3   ar
    30    27    23   ar
    31     8     4   ar
    32    16     9   ar
    33    15    11   ar
    34     1    28    1
    35     1    29    1
    36     2    30    1
    37     5    31    1
    38     6    32    1
    39     7    33    1
    40     7    34    1
    41    12    35    1
    42    18    36    1
    43    20    37    1
    44    21    38    1
    45    22    39    1
    46    24    40    1
    47    26    41    1
