@<TRIPOS>MOLECULE
*****
 37 42 0 0 0
SMALL
GASTEIGER

@<TRIPOS>ATOM
      1 C           7.1777   -0.4953   -1.0867 C.ar    1  UNL1        0.0295
      2 C           6.4486   -0.2531    0.0675 C.ar    1  UNL1       -0.0196
      3 C           5.0659   -0.2360   -0.1030 C.ar    1  UNL1        0.0504
      4 N           4.0554   -0.0299    0.8060 N.ar    1  UNL1       -0.3540
      5 C           2.8268   -0.1011    0.1933 C.ar    1  UNL1        0.0511
      6 C           1.5421    0.0428    0.7183 C.ar    1  UNL1       -0.0103
      7 C           0.5057   -0.0923   -0.1983 C.ar    1  UNL1        0.0891
      8 C          -0.8970    0.0300    0.1885 C.ar    1  UNL1        0.0660
      9 C          -1.5203    0.2791    1.3999 C.ar    1  UNL1       -0.0271
     10 C          -2.9286    0.2899    1.1909 C.ar    1  UNL1        0.0011
     11 C          -4.0433    0.4858    2.0257 C.ar    1  UNL1       -0.0418
     12 C          -5.3416    0.4333    1.4996 C.ar    1  UNL1        0.0208
     13 C          -6.6590    0.5754    2.0092 C.ar    1  UNL1       -0.0161
     14 C          -7.5099    0.4053    0.9402 C.ar    1  UNL1        0.0931
     15 O          -6.8080    0.1668   -0.1992 O.2     1  UNL1       -0.4629
     16 C          -5.4911    0.1840    0.1417 C.ar    1  UNL1        0.1368
     17 C          -4.4176   -0.0141   -0.7123 C.ar    1  UNL1        0.0051
     18 C          -3.1377    0.0431   -0.1651 C.ar    1  UNL1        0.0505
     19 N          -1.9035   -0.1090   -0.7433 N.ar    1  UNL1       -0.3529
     20 N           0.6847   -0.3461   -1.5190 N.ar    1  UNL1       -0.2528
     21 C           1.9443   -0.4817   -2.0041 C.ar    1  UNL1        0.0381
     22 C           3.0524   -0.3623   -1.1573 C.ar    1  UNL1        0.0270
     23 C           4.4676   -0.4477   -1.3453 C.ar    1  UNL1        0.0269
     24 C           5.2958   -0.6841   -2.4502 C.ar    1  UNL1        0.0373
     25 N           6.6444   -0.7056   -2.3100 N.ar    1  UNL1       -0.2625
     26 H           8.2640   -0.5276   -1.0538 H       1  UNL1        0.0830
     27 H           6.9274   -0.0908    1.0242 H       1  UNL1        0.0653
     28 H           4.1969    0.1496    1.7900 H       1  UNL1        0.1659
     29 H           1.3694    0.2454    1.7665 H       1  UNL1        0.0660
     30 H          -1.0234    0.4390    2.3471 H       1  UNL1        0.0645
     31 H          -3.8960    0.6790    3.0845 H       1  UNL1        0.0631
     32 H          -6.9516    0.7770    3.0293 H       1  UNL1        0.0655
     33 H          -8.5850    0.4225    0.8287 H       1  UNL1        0.1029
     34 H          -4.5794   -0.2060   -1.7673 H       1  UNL1        0.0675
     35 H          -1.7221   -0.2986   -1.7204 H       1  UNL1        0.1660
     36 H           2.0306   -0.6837   -3.0657 H       1  UNL1        0.0836
     37 H           4.9155   -0.8581   -3.4503 H       1  UNL1        0.0836
@<TRIPOS>BOND
     1     1     2   ar
     2     2     3   ar
     3     3     4   ar
     4     4     5   ar
     5     5     6   ar
     6     6     7   ar
     7     7     8    1
     8     8     9   ar
     9     9    10   ar
    10    10    11   ar
    11    11    12   ar
    12    12    13   ar
    13    13    14   ar
    14    14    15   ar
    15    15    16   ar
    16    16    17   ar
    17    17    18   ar
    18    18    19   ar
    19     7    20   ar
    20    20    21   ar
    21    21    22   ar
    22    22    23   ar
    23    23    24   ar
    24    24    25   ar
    25    25     1   ar
    26    23     3   ar
    27    22     5   ar
    28    19     8   ar
    29    18    10   ar
    30    16    12   ar
    31     1    26    1
    32     2    27    1
    33     4    28    1
    34     6    29    1
    35     9    30    1
    36    11    31    1
    37    13    32    1
    38    14    33    1
    39    17    34    1
    40    19    35    1
    41    21    36    1
    42    24    37    1
