@<TRIPOS>MOLECULE
*****
 36 41 0 0 0
SMALL
GASTEIGER

@<TRIPOS>ATOM
      1 C           7.0034    1.3959   -0.4212 C.ar    1  UNL1        0.0295
      2 C           5.8544    2.1717   -0.3993 C.ar    1  UNL1       -0.0196
      3 C           4.6614    1.4543   -0.3421 C.ar    1  UNL1        0.0504
      4 N           3.3576    1.8887   -0.3071 N.ar    1  UNL1       -0.3540
      5 C           2.4909    0.8231   -0.2533 C.ar    1  UNL1        0.0511
      6 C           1.0972    0.7896   -0.2047 C.ar    1  UNL1       -0.0087
      7 C           0.5269   -0.4796   -0.1565 C.ar    1  UNL1        0.1080
      8 C          -0.9167   -0.6794   -0.1024 C.ar    1  UNL1        0.1544
      9 C          -1.7179   -1.8058   -0.0494 C.ar    1  UNL1       -0.0064
     10 C          -3.0619   -1.3576   -0.0134 C.ar    1  UNL1        0.0243
     11 C          -4.3265   -1.9567    0.0436 C.ar    1  UNL1       -0.0080
     12 C          -5.4476   -1.1342    0.0636 C.ar    1  UNL1        0.1356
     13 O          -6.7434   -1.5457    0.1174 O.2     1  UNL1       -0.4629
     14 C          -7.5123   -0.4249    0.1185 C.ar    1  UNL1        0.0931
     15 C          -6.7268    0.7045    0.0660 C.ar    1  UNL1       -0.0160
     16 C          -5.3812    0.2551    0.0299 C.ar    1  UNL1        0.0236
     17 C          -4.1160    0.8536   -0.0270 C.ar    1  UNL1       -0.0080
     18 C          -2.9948    0.0304   -0.0470 C.ar    1  UNL1        0.1365
     19 O          -1.7005    0.4443   -0.1008 O.2     1  UNL1       -0.4533
     20 N           1.2469   -1.6301   -0.1552 N.ar    1  UNL1       -0.2511
     21 C           2.6012   -1.5715   -0.2031 C.ar    1  UNL1        0.0381
     22 C           3.2611   -0.3384   -0.2536 C.ar    1  UNL1        0.0270
     23 C           4.6336    0.0597   -0.3097 C.ar    1  UNL1        0.0269
     24 C           5.8527   -0.6301   -0.3360 C.ar    1  UNL1        0.0373
     25 N           7.0272    0.0455   -0.3916 N.ar    1  UNL1       -0.2625
     26 H           7.9829    1.8660   -0.4655 H       1  UNL1        0.0830
     27 H           5.8923    3.2528   -0.4250 H       1  UNL1        0.0653
     28 H           3.0749    2.8585   -0.3193 H       1  UNL1        0.1659
     29 H           0.4977    1.6913   -0.2044 H       1  UNL1        0.0661
     30 H          -1.3588   -2.8255   -0.0387 H       1  UNL1        0.0662
     31 H          -4.4379   -3.0356    0.0718 H       1  UNL1        0.0661
     32 H          -8.5795   -0.5935    0.1590 H       1  UNL1        0.1029
     33 H          -7.0811    1.7252    0.0552 H       1  UNL1        0.0655
     34 H          -4.0045    1.9322   -0.0552 H       1  UNL1        0.0661
     35 H           3.1222   -2.5223   -0.1995 H       1  UNL1        0.0836
     36 H           5.9228   -1.7116   -0.3140 H       1  UNL1        0.0836
@<TRIPOS>BOND
     1     1     2   ar
     2     2     3   ar
     3     3     4   ar
     4     4     5   ar
     5     5     6   ar
     6     6     7   ar
     7     7     8    1
     8     8     9   ar
     9     9    10   ar
    10    10    11   ar
    11    11    12   ar
    12    12    13   ar
    13    13    14   ar
    14    14    15   ar
    15    15    16   ar
    16    16    17   ar
    17    17    18   ar
    18    18    19   ar
    19     7    20   ar
    20    20    21   ar
    21    21    22   ar
    22    22    23   ar
    23    23    24   ar
    24    24    25   ar
    25    25     1   ar
    26    23     3   ar
    27    22     5   ar
    28    19     8   ar
    29    18    10   ar
    30    16    12   ar
    31     1    26    1
    32     2    27    1
    33     4    28    1
    34     6    29    1
    35     9    30    1
    36    11    31    1
    37    14    32    1
    38    15    33    1
    39    17    34    1
    40    21    35    1
    41    24    36    1
