@<TRIPOS>MOLECULE
*****
 35 40 0 0 0
SMALL
GASTEIGER

@<TRIPOS>ATOM
      1 C          -6.9768   -0.2083    0.2643 C.ar    1  UNL1        0.0295
      2 C          -5.9921   -0.9268    0.9252 C.ar    1  UNL1       -0.0196
      3 C          -4.6853   -0.5803    0.5886 C.ar    1  UNL1        0.0504
      4 N          -3.4846   -1.0757    1.0390 N.ar    1  UNL1       -0.3540
      5 C          -2.4323   -0.4337    0.4292 C.ar    1  UNL1        0.0511
      6 C          -1.0537   -0.6061    0.5764 C.ar    1  UNL1       -0.0103
      7 C          -0.2575    0.2250   -0.2075 C.ar    1  UNL1        0.0892
      8 C           1.2071    0.1854   -0.1852 C.ar    1  UNL1        0.0686
      9 C           2.1244    0.9485   -0.9067 C.ar    1  UNL1       -0.0072
     10 C           3.4248    0.5450   -0.5430 C.ar    1  UNL1        0.1090
     11 N           4.6519    0.9671   -0.9494 N.ar    1  UNL1       -0.2387
     12 C           5.6994    0.3273   -0.3626 C.ar    1  UNL1        0.1293
     13 C           7.0936    0.4732   -0.5127 C.ar    1  UNL1        0.0039
     14 C           7.6632   -0.4474    0.3411 C.ar    1  UNL1        0.0966
     15 O           6.7079   -1.1533    1.0096 O.2     1  UNL1       -0.4439
     16 C           5.5051   -0.6812    0.5809 C.ar    1  UNL1        0.2478
     17 N           4.3001   -1.1191    1.0017 N.ar    1  UNL1       -0.1914
     18 C           3.2871   -0.4640    0.4003 C.ar    1  UNL1        0.1609
     19 N           1.9538   -0.6690    0.6051 N.ar    1  UNL1       -0.3365
     20 N          -0.7540    1.1474   -1.0637 N.ar    1  UNL1       -0.2528
     21 C          -2.0954    1.2983   -1.1911 C.ar    1  UNL1        0.0381
     22 C          -2.9741    0.5076   -0.4441 C.ar    1  UNL1        0.0270
     23 C          -4.3975    0.4160   -0.3444 C.ar    1  UNL1        0.0269
     24 C          -5.4668    1.0828   -0.9562 C.ar    1  UNL1        0.0373
     25 N          -6.7476    0.7636   -0.6454 N.ar    1  UNL1       -0.2625
     26 H          -8.0277   -0.4073    0.4605 H       1  UNL1        0.0830
     27 H          -6.2319   -1.6969    1.6465 H       1  UNL1        0.0653
     28 H          -3.3913   -1.8113    1.7249 H       1  UNL1        0.1659
     29 H          -0.6513   -1.3410    1.2584 H       1  UNL1        0.0660
     30 H           1.8676    1.7182   -1.6228 H       1  UNL1        0.0661
     31 H           7.6137    1.1621   -1.1610 H       1  UNL1        0.0671
     32 H           8.6843   -0.7131    0.5789 H       1  UNL1        0.1031
     33 H           1.5968   -1.3562    1.2501 H       1  UNL1        0.1674
     34 H          -2.4272    2.0544   -1.8937 H       1  UNL1        0.0836
     35 H          -5.3337    1.8686   -1.6911 H       1  UNL1        0.0836
@<TRIPOS>BOND
     1     1     2   ar
     2     2     3   ar
     3     3     4   ar
     4     4     5   ar
     5     5     6   ar
     6     6     7   ar
     7     7     8    1
     8     8     9   ar
     9     9    10   ar
    10    10    11   ar
    11    11    12   ar
    12    12    13   ar
    13    13    14   ar
    14    14    15   ar
    15    15    16   ar
    16    16    17   ar
    17    17    18   ar
    18    18    19   ar
    19     7    20   ar
    20    20    21   ar
    21    21    22   ar
    22    22    23   ar
    23    23    24   ar
    24    24    25   ar
    25    25     1   ar
    26    23     3   ar
    27    22     5   ar
    28    19     8   ar
    29    18    10   ar
    30    16    12   ar
    31     1    26    1
    32     2    27    1
    33     4    28    1
    34     6    29    1
    35     9    30    1
    36    13    31    1
    37    14    32    1
    38    19    33    1
    39    21    34    1
    40    24    35    1
