@<TRIPOS>MOLECULE
*****
 32 36 0 0 0
SMALL
GASTEIGER

@<TRIPOS>ATOM
      1 C           6.0511    0.1368   -0.6014 C.ar    1  UNL1        0.0295
      2 C           5.2054    0.6347    0.3782 C.ar    1  UNL1       -0.0196
      3 C           3.8497    0.3998    0.1592 C.ar    1  UNL1        0.0504
      4 N           2.7496    0.7443    0.9083 N.ar    1  UNL1       -0.3540
      5 C           1.5938    0.3046    0.3068 C.ar    1  UNL1        0.0510
      6 C           0.2591    0.4274    0.7044 C.ar    1  UNL1       -0.0117
      7 C          -0.7025   -0.1362   -0.1385 C.ar    1  UNL1        0.0730
      8 C          -2.1680   -0.0930    0.1393 C.ar    1  UNL1        0.0026
      9 C          -3.0851   -0.6871   -0.7626 C.ar    1  UNL1       -0.0504
     10 C          -4.4771   -0.6882   -0.5716 C.ar    1  UNL1       -0.0341
     11 C          -4.9343   -0.0597    0.5803 C.ar    1  UNL1        0.0858
     12 N          -6.1757    0.1473    1.1109 N.ar    1  UNL1       -0.2571
     13 N          -6.1184    0.8219    2.2714 N.ar    1  UNL1       -0.0673
     14 N          -4.8386    1.0698    2.5234 N.ar    1  UNL1       -0.1296
     15 C          -4.0941    0.5402    1.5029 C.ar    1  UNL1        0.1131
     16 C          -2.7057    0.5277    1.2889 C.ar    1  UNL1       -0.0232
     17 N          -0.3530   -0.7726   -1.2895 N.ar    1  UNL1       -0.2542
     18 C           0.9476   -0.8834   -1.6617 C.ar    1  UNL1        0.0380
     19 C           1.9609   -0.3441   -0.8678 C.ar    1  UNL1        0.0270
     20 C           3.3861   -0.2856   -0.9638 C.ar    1  UNL1        0.0269
     21 C           4.3249   -0.7480   -1.8950 C.ar    1  UNL1        0.0373
     22 N           5.6501   -0.5321   -1.7046 N.ar    1  UNL1       -0.2625
     23 H           7.1270    0.2708   -0.5183 H       1  UNL1        0.0830
     24 H           5.5805    1.1644    1.2439 H       1  UNL1        0.0653
     25 H           2.7863    1.2512    1.7813 H       1  UNL1        0.1659
     26 H           0.0087    0.9380    1.6236 H       1  UNL1        0.0660
     27 H          -2.7053   -1.1758   -1.6618 H       1  UNL1        0.0625
     28 H          -5.1433   -1.1553   -1.2883 H       1  UNL1        0.0639
     29 H          -7.0802   -0.1320    0.7524 H       1  UNL1        0.1907
     30 H          -2.0877    1.0085    2.0359 H       1  UNL1        0.0646
     31 H           1.1360   -1.4057   -2.5926 H       1  UNL1        0.0836
     32 H           4.0519   -1.2888   -2.7939 H       1  UNL1        0.0836
@<TRIPOS>BOND
     1     1     2   ar
     2     2     3   ar
     3     3     4   ar
     4     4     5   ar
     5     5     6   ar
     6     6     7   ar
     7     7     8    1
     8     8     9   ar
     9     9    10   ar
    10    10    11   ar
    11    11    12   ar
    12    12    13   ar
    13    13    14   ar
    14    14    15   ar
    15    15    16   ar
    16     7    17   ar
    17    17    18   ar
    18    18    19   ar
    19    19    20   ar
    20    20    21   ar
    21    21    22   ar
    22    22     1   ar
    23    20     3   ar
    24    19     5   ar
    25    16     8   ar
    26    15    11   ar
    27     1    23    1
    28     2    24    1
    29     4    25    1
    30     6    26    1
    31     9    27    1
    32    10    28    1
    33    12    29    1
    34    16    30    1
    35    18    31    1
    36    21    32    1
