@<TRIPOS>MOLECULE
*****
 27 30 0 0 0
SMALL
GASTEIGER

@<TRIPOS>ATOM
      1 C           5.0011   -0.3421   -0.2314 C.ar    1  UNL1        0.0295
      2 C           4.1295    0.2991   -1.0985 C.ar    1  UNL1       -0.0196
      3 C           2.7809    0.1854   -0.7675 C.ar    1  UNL1        0.0504
      4 N           1.6620    0.6847   -1.3908 N.ar    1  UNL1       -0.3540
      5 C           0.5231    0.3236   -0.7102 C.ar    1  UNL1        0.0510
      6 C          -0.8193    0.6028   -0.9743 C.ar    1  UNL1       -0.0116
      7 C          -1.7361    0.0749   -0.0678 C.ar    1  UNL1        0.0759
      8 C          -3.1642    0.2980   -0.2368 C.ar    1  UNL1        0.0376
      9 C          -3.8978    1.0041   -1.2182 C.ar    1  UNL1        0.0583
     10 N          -5.2174    0.9690   -1.0096 N.ar    1  UNL1       -0.1817
     11 N          -5.3359    0.2374    0.1110 N.ar    1  UNL1       -0.2841
     12 C          -4.1414   -0.1858    0.6102 C.ar    1  UNL1        0.0315
     13 N          -1.3779   -0.6663    1.0111 N.ar    1  UNL1       -0.2541
     14 C          -0.0680   -0.9248    1.2476 C.ar    1  UNL1        0.0380
     15 C           0.9213   -0.4344    0.3891 C.ar    1  UNL1        0.0270
     16 C           2.3481   -0.5224    0.3541 C.ar    1  UNL1        0.0269
     17 C           3.3115   -1.1346    1.1663 C.ar    1  UNL1        0.0373
     18 N           4.6302   -1.0384    0.8653 N.ar    1  UNL1       -0.2625
     19 H           6.0737   -0.3098   -0.4069 H       1  UNL1        0.0830
     20 H           4.4809    0.8443   -1.9646 H       1  UNL1        0.0653
     21 H           1.6762    1.2410   -2.2339 H       1  UNL1        0.1659
     22 H          -1.1163    1.1925   -1.8312 H       1  UNL1        0.0660
     23 H          -3.5308    1.5452   -2.0801 H       1  UNL1        0.0854
     24 H          -6.2655    0.0660    0.4798 H       1  UNL1        0.1882
     25 H          -4.0824   -0.7844    1.5086 H       1  UNL1        0.0830
     26 H           0.1511   -1.5222    2.1253 H       1  UNL1        0.0836
     27 H           3.0633   -1.7030    2.0554 H       1  UNL1        0.0836
@<TRIPOS>BOND
     1     1     2   ar
     2     2     3   ar
     3     3     4   ar
     4     4     5   ar
     5     5     6   ar
     6     6     7   ar
     7     7     8    1
     8     8     9   ar
     9     9    10   ar
    10    10    11   ar
    11    11    12   ar
    12     7    13   ar
    13    13    14   ar
    14    14    15   ar
    15    15    16   ar
    16    16    17   ar
    17    17    18   ar
    18    18     1   ar
    19    16     3   ar
    20    15     5   ar
    21    12     8   ar
    22     1    19    1
    23     2    20    1
    24     4    21    1
    25     6    22    1
    26     9    23    1
    27    11    24    1
    28    12    25    1
    29    14    26    1
    30    17    27    1
