@<TRIPOS>MOLECULE
*****
 46 53 0 0 0
SMALL
GASTEIGER

@<TRIPOS>ATOM
      1 SI          1.1402    1.3914    0.2993 Si      1  UNL1        0.0000
      2 C           2.1915   -0.1591    0.3456 C.2     1  UNL1        0.0000
      3 C           1.4500   -1.2804    0.2834 C.2     1  UNL1        0.0000
      4 C           0.0179   -1.0068    0.1917 C.ar    1  UNL1        0.0000
      5 C          -0.4555    0.3452    0.1793 C.ar    1  UNL1        0.0000
      6 C          -1.8740    0.7299    0.0904 C.ar    1  UNL1        0.0000
      7 C          -2.4643    2.0416    0.0694 C.ar    1  UNL1        0.0000
      8 C          -1.7629    3.2305    0.1302 C.ar    1  UNL1        0.0000
      9 S          -2.7564    4.6418    0.0852 S.2     1  UNL1        0.0000
     10 C          -4.1806    3.7016   -0.0203 C.ar    1  UNL1        0.0000
     11 C          -3.8442    2.3764   -0.0164 C.ar    1  UNL1        0.0000
     12 C          -4.8075    1.3239   -0.0938 C.ar    1  UNL1        0.0000
     13 C          -6.2028    1.5176   -0.1824 C.ar    1  UNL1        0.0000
     14 C          -6.8416    0.3035   -0.2411 C.ar    1  UNL1        0.0000
     15 S          -5.7464   -1.0022   -0.1875 S.2     1  UNL1        0.0000
     16 C          -4.3367    0.0180   -0.0814 C.ar    1  UNL1        0.0000
     17 C          -2.9352   -0.2921    0.0060 C.ar    1  UNL1        0.0000
     18 C          -2.4016   -1.6130    0.0217 C.ar    1  UNL1        0.0000
     19 C          -3.0524   -2.8264   -0.0404 C.ar    1  UNL1        0.0000
     20 N          -2.1136   -3.8355    0.0067 N.ar    1  UNL1        0.0000
     21 C          -0.8551   -3.3003    0.0988 C.ar    1  UNL1        0.0000
     22 C          -1.0037   -1.9355    0.1098 C.ar    1  UNL1        0.0000
     23 C           3.6335   -0.0999    0.4422 C.ar    1  UNL1        0.0000
     24 C           4.3719    0.3834    1.5520 C.ar    1  UNL1        0.0000
     25 C           5.8128    0.4158    1.6140 C.ar    1  UNL1        0.0000
     26 C           6.6676   -0.0317    0.5792 C.ar    1  UNL1        0.0000
     27 C           5.9198   -0.5035   -0.4907 C.ar    1  UNL1        0.0000
     28 C           6.3962   -1.0139   -1.6680 C.ar    1  UNL1        0.0000
     29 O           5.3444   -1.3636   -2.4713 O.2     1  UNL1        0.0000
     30 C           4.1911   -1.0706   -1.7934 C.ar    1  UNL1        0.0000
     31 C           4.4957   -0.5424   -0.5646 C.ar    1  UNL1        0.0000
     32 H           1.3555    2.2053   -0.9245 H       1  UNL1        0.0000
     33 H           1.2000    2.1617    1.5692 H       1  UNL1        0.0000
     34 H           1.8455   -2.2865    0.3020 H       1  UNL1        0.0000
     35 H          -0.7097    3.4261    0.1999 H       1  UNL1        0.0000
     36 H          -5.1468    4.1815   -0.0769 H       1  UNL1        0.0000
     37 H          -6.7320    2.4608   -0.2041 H       1  UNL1        0.0000
     38 H          -7.9044    0.1175   -0.3133 H       1  UNL1        0.0000
     39 H          -4.0897   -3.1101   -0.1142 H       1  UNL1        0.0000
     40 H          -2.3263   -4.8243   -0.0230 H       1  UNL1        0.0000
     41 H           0.0140   -3.9418    0.1468 H       1  UNL1        0.0000
     42 H           3.8282    0.7455    2.4260 H       1  UNL1        0.0000
     43 H           6.2699    0.8088    2.5236 H       1  UNL1        0.0000
     44 H           7.7460   -0.0023    0.6381 H       1  UNL1        0.0000
     45 H           7.3778   -1.1908   -2.0836 H       1  UNL1        0.0000
     46 H           3.2741   -1.2952   -2.3198 H       1  UNL1        0.0000
@<TRIPOS>BOND
     1     1     2    1
     2     2     3    2
     3     3     4    1
     4     4     5   ar
     5     5     6   ar
     6     6     7   ar
     7     7     8   ar
     8     8     9   ar
     9     9    10   ar
    10    10    11   ar
    11    11    12   ar
    12    12    13   ar
    13    13    14   ar
    14    14    15   ar
    15    15    16   ar
    16    16    17   ar
    17    17    18   ar
    18    18    19   ar
    19    19    20   ar
    20    20    21   ar
    21    21    22   ar
    22     2    23    1
    23    23    24   ar
    24    24    25   ar
    25    25    26   ar
    26    26    27   ar
    27    27    28   ar
    28    28    29   ar
    29    29    30   ar
    30    30    31   ar
    31     5     1    1
    32    17     6   ar
    33    22    18   ar
    34    31    23   ar
    35    22     4   ar
    36    31    27   ar
    37    11     7   ar
    38    16    12   ar
    39     1    32    1
    40     1    33    1
    41     3    34    1
    42     8    35    1
    43    10    36    1
    44    13    37    1
    45    14    38    1
    46    19    39    1
    47    20    40    1
    48    21    41    1
    49    24    42    1
    50    25    43    1
    51    26    44    1
    52    28    45    1
    53    30    46    1
