@<TRIPOS>MOLECULE
*****
 37 42 0 0 0
SMALL
GASTEIGER

@<TRIPOS>ATOM
      1 SI         -3.4638    2.8121   -1.1877 Si      1  UNL1        0.0000
      2 C          -1.7507    2.1696   -0.8458 C.2     1  UNL1        0.0000
      3 C          -1.7898    0.9467   -0.2822 C.ar    1  UNL1        0.0000
      4 C          -0.6779    0.1464    0.1168 C.ar    1  UNL1        0.0000
      5 C           0.6953    0.3149    0.0755 C.ar    1  UNL1        0.0000
      6 SI          2.0655    1.4784   -0.4255 Si      1  UNL1        0.0000
      7 C           3.3274    0.1438    0.2248 C.2     1  UNL1        0.0000
      8 C           2.6989   -0.9534    0.7147 C.2     1  UNL1        0.0000
      9 C           1.2973   -0.8014    0.6071 C.ar    1  UNL1        0.0000
     10 N           0.3260   -1.6777    0.9860 N.ar    1  UNL1        0.0000
     11 C          -0.9027   -1.1085    0.6904 C.ar    1  UNL1        0.0000
     12 C          -2.2276   -1.6945    0.9258 C.ar    1  UNL1        0.0000
     13 C          -2.4289   -2.9450    1.4978 C.ar    1  UNL1        0.0000
     14 N          -3.6459   -3.4949    1.7195 N.ar    1  UNL1        0.0000
     15 C          -4.7158   -2.7594    1.3514 C.ar    1  UNL1        0.0000
     16 C          -4.6335   -1.5019    0.7730 C.ar    1  UNL1        0.0000
     17 C          -3.3703   -0.9474    0.5505 C.ar    1  UNL1        0.0000
     18 C          -3.1645    0.3982   -0.0653 C.ar    1  UNL1        0.0000
     19 C          -4.1517    1.2256   -0.4734 C.2     1  UNL1        0.0000
     20 C           4.7164    0.4103    0.1390 C.ar    1  UNL1        0.0000
     21 N           5.2632    1.5090   -0.3542 N.ar    1  UNL1        0.0000
     22 C           6.6405    1.4560   -0.2925 C.ar    1  UNL1        0.0000
     23 C           7.1634    0.3084    0.2520 C.ar    1  UNL1        0.0000
     24 S           5.8942   -0.7420    0.7034 S.2     1  UNL1        0.0000
     25 H          -3.8081    3.9941   -0.3616 H       1  UNL1        0.0000
     26 H          -3.7480    2.9437   -2.6368 H       1  UNL1        0.0000
     27 H          -0.8816    2.7543   -1.0927 H       1  UNL1        0.0000
     28 H           2.1535    1.6700   -1.8985 H       1  UNL1        0.0000
     29 H           2.0925    2.7254    0.3859 H       1  UNL1        0.0000
     30 H           3.1740   -1.8308    1.1328 H       1  UNL1        0.0000
     31 H           0.4762   -2.5832    1.4082 H       1  UNL1        0.0000
     32 H          -1.6008   -3.5723    1.8095 H       1  UNL1        0.0000
     33 H          -5.6805   -3.2227    1.5397 H       1  UNL1        0.0000
     34 H          -5.5456   -0.9818    0.5086 H       1  UNL1        0.0000
     35 H          -5.2167    1.0722   -0.4307 H       1  UNL1        0.0000
     36 H           7.2198    2.2926   -0.6636 H       1  UNL1        0.0000
     37 H           8.2003    0.0455    0.4016 H       1  UNL1        0.0000
@<TRIPOS>BOND
     1     1     2    1
     2     2     3    2
     3     3     4   ar
     4     4     5   ar
     5     5     6    1
     6     6     7    1
     7     7     8    2
     8     8     9    1
     9     9    10   ar
    10    10    11   ar
    11    11    12   ar
    12    12    13   ar
    13    13    14   ar
    14    14    15   ar
    15    15    16   ar
    16    16    17   ar
    17    17    18   ar
    18    18    19    2
    19     7    20    1
    20    20    21   ar
    21    21    22   ar
    22    22    23   ar
    23    23    24   ar
    24    19     1    1
    25    24    20   ar
    26    18     3   ar
    27    11     4   ar
    28    17    12   ar
    29     9     5   ar
    30     1    25    1
    31     1    26    1
    32     2    27    1
    33     6    28    1
    34     6    29    1
    35     8    30    1
    36    10    31    1
    37    13    32    1
    38    15    33    1
    39    16    34    1
    40    19    35    1
    41    22    36    1
    42    23    37    1
