@<TRIPOS>MOLECULE
*****
 47 54 0 0 0
SMALL
GASTEIGER

@<TRIPOS>ATOM
      1 SI         -3.7180   -3.8769   -0.7922 Si      1  UNL1        0.0000
      2 C          -2.1131   -2.9300   -0.7549 C.2     1  UNL1        0.0000
      3 C          -2.3086   -1.6518   -0.3785 C.ar    1  UNL1        0.0000
      4 C          -1.3161   -0.6392   -0.2383 C.ar    1  UNL1        0.0000
      5 C           0.0526   -0.5444   -0.4018 C.ar    1  UNL1        0.0000
      6 SI          1.5617   -1.5084   -0.8752 Si      1  UNL1        0.0000
      7 C           2.6030    0.0927   -0.5643 C.2     1  UNL1        0.0000
      8 C           1.8235    1.1321   -0.1867 C.2     1  UNL1        0.0000
      9 C           0.4556    0.7507   -0.1013 C.ar    1  UNL1        0.0000
     10 O          -0.6476    1.4820    0.2503 O.2     1  UNL1        0.0000
     11 C          -1.7050    0.6272    0.1624 C.ar    1  UNL1        0.0000
     12 C          -3.0494    1.0473    0.4629 C.ar    1  UNL1        0.0000
     13 C          -3.4816    2.3066    0.8673 C.ar    1  UNL1        0.0000
     14 C          -2.7640    3.4541    1.0829 C.ar    1  UNL1        0.0000
     15 O          -3.6071    4.4605    1.4744 O.2     1  UNL1        0.0000
     16 C          -4.8756    3.9475    1.5087 C.ar    1  UNL1        0.0000
     17 C          -4.8424    2.6290    1.1431 C.ar    1  UNL1        0.0000
     18 C          -5.9207    1.7585    1.0533 C.ar    1  UNL1        0.0000
     19 C          -5.4964    0.4669    0.6412 C.ar    1  UNL1        0.0000
     20 C          -4.1272    0.1010    0.3523 C.ar    1  UNL1        0.0000
     21 C          -3.7396   -1.2896   -0.0818 C.ar    1  UNL1        0.0000
     22 C          -4.5986   -2.3194   -0.2448 C.2     1  UNL1        0.0000
     23 C           4.0299    0.1109   -0.8015 C.ar    1  UNL1        0.0000
     24 C           4.6244    0.6674   -1.9587 C.ar    1  UNL1        0.0000
     25 C           6.0360    0.6838   -2.2008 C.ar    1  UNL1        0.0000
     26 C           6.9956    0.1548   -1.3109 C.ar    1  UNL1        0.0000
     27 C           6.4056   -0.3767   -0.1637 C.ar    1  UNL1        0.0000
     28 C           7.1431   -0.9332    0.8517 C.ar    1  UNL1        0.0000
     29 S           6.1310   -1.4763    2.1298 S.2     1  UNL1        0.0000
     30 C           4.7032   -0.9595    1.3208 C.ar    1  UNL1        0.0000
     31 C           4.9844   -0.4017    0.0945 C.ar    1  UNL1        0.0000
     32 H          -4.1015   -4.2881   -2.1636 H       1  UNL1        0.0000
     33 H          -3.7705   -4.9442    0.2349 H       1  UNL1        0.0000
     34 H          -1.1838   -3.4082   -1.0137 H       1  UNL1        0.0000
     35 H           1.6065   -1.9109   -2.3047 H       1  UNL1        0.0000
     36 H           1.9237   -2.5785    0.0900 H       1  UNL1        0.0000
     37 H           2.1637    2.1365    0.0251 H       1  UNL1        0.0000
     38 H          -1.7200    3.7254    1.0138 H       1  UNL1        0.0000
     39 H          -5.6497    4.6407    1.8052 H       1  UNL1        0.0000
     40 H          -6.9518    2.0058    1.2632 H       1  UNL1        0.0000
     41 H          -6.2755   -0.2878    0.5420 H       1  UNL1        0.0000
     42 H          -5.6657   -2.3331   -0.1010 H       1  UNL1        0.0000
     43 H           3.9779    1.1092   -2.7185 H       1  UNL1        0.0000
     44 H           6.3878    1.1351   -3.1295 H       1  UNL1        0.0000
     45 H           8.0582    0.1803   -1.5132 H       1  UNL1        0.0000
     46 H           8.2153   -1.0506    0.9269 H       1  UNL1        0.0000
     47 H           3.7467   -1.0974    1.8052 H       1  UNL1        0.0000
@<TRIPOS>BOND
     1     1     2    1
     2     2     3    2
     3     3     4   ar
     4     4     5   ar
     5     5     6    1
     6     6     7    1
     7     7     8    2
     8     8     9    1
     9     9    10   ar
    10    10    11   ar
    11    11    12   ar
    12    12    13   ar
    13    13    14   ar
    14    14    15   ar
    15    15    16   ar
    16    16    17   ar
    17    17    18   ar
    18    18    19   ar
    19    19    20   ar
    20    20    21   ar
    21    21    22    2
    22     7    23    1
    23    23    24   ar
    24    24    25   ar
    25    25    26   ar
    26    26    27   ar
    27    27    28   ar
    28    28    29   ar
    29    29    30   ar
    30    30    31   ar
    31    22     1    1
    32    31    23   ar
    33    21     3   ar
    34    31    27   ar
    35    11     4   ar
    36    20    12   ar
    37     9     5   ar
    38    17    13   ar
    39     1    32    1
    40     1    33    1
    41     2    34    1
    42     6    35    1
    43     6    36    1
    44     8    37    1
    45    14    38    1
    46    16    39    1
    47    18    40    1
    48    19    41    1
    49    22    42    1
    50    24    43    1
    51    25    44    1
    52    26    45    1
    53    28    46    1
    54    30    47    1
