@<TRIPOS>MOLECULE
*****
 45 51 0 0 0
SMALL
GASTEIGER

@<TRIPOS>ATOM
      1 SI         -2.1333    4.3169   -0.4337 Si      1  UNL1        0.0000
      2 C          -3.0346    2.6949   -0.5584 C.2     1  UNL1        0.0000
      3 C          -2.1926    1.6552   -0.4006 C.ar    1  UNL1        0.0000
      4 C          -2.5242    0.2714   -0.3914 C.ar    1  UNL1        0.0000
      5 C          -3.7270   -0.4161   -0.3820 C.ar    1  UNL1        0.0000
      6 SI         -5.5760   -0.2314   -0.4209 Si      1  UNL1        0.0000
      7 C          -5.6936   -2.1583   -0.1338 C.2     1  UNL1        0.0000
      8 C          -4.4719   -2.7291   -0.0369 C.2     1  UNL1        0.0000
      9 C          -3.4659   -1.7489   -0.1770 C.ar    1  UNL1        0.0000
     10 N          -2.1199   -1.9074   -0.0620 N.ar    1  UNL1        0.0000
     11 C          -1.5043   -0.6859   -0.3072 C.ar    1  UNL1        0.0000
     12 C          -0.0463   -0.3908   -0.2496 C.ar    1  UNL1        0.0000
     13 C           0.9857   -1.3784   -0.3564 C.ar    1  UNL1        0.0000
     14 C           0.7705   -2.7068   -0.8127 C.ar    1  UNL1        0.0000
     15 C           1.7786   -3.6718   -0.8421 C.ar    1  UNL1        0.0000
     16 C           3.0539   -3.3360   -0.4329 C.ar    1  UNL1        0.0000
     17 C           3.3219   -2.0256   -0.0446 C.ar    1  UNL1        0.0000
     18 C           2.3245   -1.0165   -0.0310 C.ar    1  UNL1        0.0000
     19 C           2.6235    0.3341    0.2907 C.ar    1  UNL1        0.0000
     20 C           1.6170    1.3089    0.2510 C.ar    1  UNL1        0.0000
     21 C           0.2933    0.9770   -0.0413 C.ar    1  UNL1        0.0000
     22 C          -0.7677    2.0251   -0.1718 C.ar    1  UNL1        0.0000
     23 C          -0.5519    3.3598   -0.1575 C.2     1  UNL1        0.0000
     24 C           3.9658    0.7908    0.6390 C.ar    1  UNL1        0.0000
     25 C           4.5010    1.4343    1.7368 C.ar    1  UNL1        0.0000
     26 C           5.8719    1.6447    1.4499 C.ar    1  UNL1        0.0000
     27 C           6.0826    1.1304    0.1924 C.ar    1  UNL1        0.0000
     28 O           4.9308    0.6152   -0.3101 O.2     1  UNL1        0.0000
     29 H          -2.5324    5.1015    0.7597 H       1  UNL1        0.0000
     30 H          -2.1247    5.0677   -1.7122 H       1  UNL1        0.0000
     31 H          -4.0969    2.6636   -0.7264 H       1  UNL1        0.0000
     32 H          -6.1680    0.4895    0.7351 H       1  UNL1        0.0000
     33 H          -6.1531    0.1192   -1.7438 H       1  UNL1        0.0000
     34 H          -6.6600   -2.6303   -0.0692 H       1  UNL1        0.0000
     35 H          -4.2893   -3.7827    0.1272 H       1  UNL1        0.0000
     36 H          -1.6521   -2.7595    0.2095 H       1  UNL1        0.0000
     37 H          -0.1901   -3.0036   -1.2221 H       1  UNL1        0.0000
     38 H           1.5644   -4.6753   -1.1997 H       1  UNL1        0.0000
     39 H           3.8506   -4.0743   -0.4463 H       1  UNL1        0.0000
     40 H           4.3477   -1.7909    0.2345 H       1  UNL1        0.0000
     41 H           1.8901    2.3421    0.4480 H       1  UNL1        0.0000
     42 H           0.3784    3.8892   -0.0409 H       1  UNL1        0.0000
     43 H           3.9645    1.7123    2.6332 H       1  UNL1        0.0000
     44 H           6.6133    2.1175    2.0783 H       1  UNL1        0.0000
     45 H           6.9460    1.0584   -0.4542 H       1  UNL1        0.0000
@<TRIPOS>BOND
     1     1     2    1
     2     2     3    2
     3     3     4   ar
     4     4     5   ar
     5     5     6    1
     6     6     7    1
     7     7     8    2
     8     8     9    1
     9     9    10   ar
    10    10    11   ar
    11    11    12   ar
    12    12    13   ar
    13    13    14   ar
    14    14    15   ar
    15    15    16   ar
    16    16    17   ar
    17    17    18   ar
    18    18    19   ar
    19    19    20   ar
    20    20    21   ar
    21    21    22   ar
    22    22    23    2
    23    19    24    1
    24    24    25   ar
    25    25    26   ar
    26    26    27   ar
    27    27    28   ar
    28    23     1    1
    29    28    24   ar
    30    22     3   ar
    31    11     4   ar
    32    21    12   ar
    33     9     5   ar
    34    18    13   ar
    35     1    29    1
    36     1    30    1
    37     2    31    1
    38     6    32    1
    39     6    33    1
    40     7    34    1
    41     8    35    1
    42    10    36    1
    43    14    37    1
    44    15    38    1
    45    16    39    1
    46    17    40    1
    47    20    41    1
    48    23    42    1
    49    25    43    1
    50    26    44    1
    51    27    45    1
