@<TRIPOS>MOLECULE
*****
 38 43 0 0 0
SMALL
GASTEIGER

@<TRIPOS>ATOM
      1 SI         -1.9431   -3.7635    0.2239 Si      1  UNL1        0.0000
      2 C          -2.8198   -2.1194    0.2843 C.2     1  UNL1        0.0000
      3 C          -1.9458   -1.0995    0.1890 C.ar    1  UNL1        0.0000
      4 C          -2.2412    0.2917    0.1983 C.ar    1  UNL1        0.0000
      5 C          -3.3723    1.0789    0.2938 C.ar    1  UNL1        0.0000
      6 SI         -5.2118    1.0224    0.4667 Si      1  UNL1        0.0000
      7 C          -5.2201    2.9463    0.4421 C.2     1  UNL1        0.0000
      8 C          -3.9724    3.4492    0.3187 C.2     1  UNL1        0.0000
      9 C          -2.9981    2.4154    0.2411 C.ar    1  UNL1        0.0000
     10 O          -1.6367    2.4862    0.1128 O.2     1  UNL1        0.0000
     11 C          -1.1976    1.1940    0.0888 C.ar    1  UNL1        0.0000
     12 C           0.2198    0.8921   -0.0399 C.ar    1  UNL1        0.0000
     13 C           1.1946    1.8843   -0.1442 C.ar    1  UNL1        0.0000
     14 C           2.5398    1.5273   -0.2653 C.ar    1  UNL1        0.0000
     15 C           2.9353    0.1803   -0.2846 C.ar    1  UNL1        0.0000
     16 C           1.9446   -0.8131   -0.1788 C.ar    1  UNL1        0.0000
     17 C           0.5858   -0.4806   -0.0561 C.ar    1  UNL1        0.0000
     18 C          -0.5061   -1.5053    0.0596 C.ar    1  UNL1        0.0000
     19 C          -0.3215   -2.8436    0.0600 C.2     1  UNL1        0.0000
     20 C           4.3451   -0.1900   -0.4117 C.ar    1  UNL1        0.0000
     21 C           5.0331   -1.3888   -0.4611 C.ar    1  UNL1        0.0000
     22 C           6.4072   -1.0702   -0.5933 C.ar    1  UNL1        0.0000
     23 C           6.4785    0.3010   -0.6169 C.ar    1  UNL1        0.0000
     24 O           5.2392    0.8420   -0.5079 O.2     1  UNL1        0.0000
     25 H          -2.2759   -4.5396   -0.9943 H       1  UNL1        0.0000
     26 H          -2.0422   -4.5067    1.5026 H       1  UNL1        0.0000
     27 H          -3.8904   -2.0650    0.3838 H       1  UNL1        0.0000
     28 H          -5.7028    0.5177    1.7735 H       1  UNL1        0.0000
     29 H          -5.9355    0.4848   -0.7126 H       1  UNL1        0.0000
     30 H          -6.1467    3.4916    0.5216 H       1  UNL1        0.0000
     31 H          -3.7151    4.4985    0.2807 H       1  UNL1        0.0000
     32 H           0.9161    2.9352   -0.1319 H       1  UNL1        0.0000
     33 H           3.2820    2.3196   -0.3452 H       1  UNL1        0.0000
     34 H           2.2404   -1.8570   -0.1928 H       1  UNL1        0.0000
     35 H           0.6011   -3.3934   -0.0191 H       1  UNL1        0.0000
     36 H           4.6006   -2.3774   -0.4085 H       1  UNL1        0.0000
     37 H           7.2408   -1.7545   -0.6626 H       1  UNL1        0.0000
     38 H           7.2910    1.0090   -0.7014 H       1  UNL1        0.0000
@<TRIPOS>BOND
     1     1     2    1
     2     2     3    2
     3     3     4   ar
     4     4     5   ar
     5     5     6    1
     6     6     7    1
     7     7     8    2
     8     8     9    1
     9     9    10   ar
    10    10    11   ar
    11    11    12   ar
    12    12    13   ar
    13    13    14   ar
    14    14    15   ar
    15    15    16   ar
    16    16    17   ar
    17    17    18   ar
    18    18    19    2
    19    15    20    1
    20    20    21   ar
    21    21    22   ar
    22    22    23   ar
    23    23    24   ar
    24    19     1    1
    25    24    20   ar
    26    18     3   ar
    27    11     4   ar
    28    17    12   ar
    29     9     5   ar
    30     1    25    1
    31     1    26    1
    32     2    27    1
    33     6    28    1
    34     6    29    1
    35     7    30    1
    36     8    31    1
    37    13    32    1
    38    14    33    1
    39    16    34    1
    40    19    35    1
    41    21    36    1
    42    22    37    1
    43    23    38    1
