@<TRIPOS>MOLECULE
*****
 41 46 0 0 0
SMALL
GASTEIGER

@<TRIPOS>ATOM
      1 SI         -1.0115   -4.0720    0.1325 Si      1  UNL1        0.0000
      2 C          -2.2724   -2.7006    0.1482 C.2     1  UNL1        0.0000
      3 C          -1.7062   -1.4769    0.1072 C.ar    1  UNL1        0.0000
      4 C          -2.3652   -0.1882    0.1055 C.ar    1  UNL1        0.0000
      5 C          -3.7833    0.1353    0.1092 C.ar    1  UNL1        0.0000
      6 C          -4.9637   -0.6587    0.1029 C.ar    1  UNL1        0.0000
      7 C          -6.2403   -0.0825    0.1135 C.ar    1  UNL1        0.0000
      8 C          -6.3849    1.2925    0.1290 C.ar    1  UNL1        0.0000
      9 C          -5.2581    2.1105    0.1310 C.ar    1  UNL1        0.0000
     10 C          -3.9745    1.5227    0.1191 C.ar    1  UNL1        0.0000
     11 S          -2.4891    2.3741    0.1119 S.2     1  UNL1        0.0000
     12 C          -1.5618    0.9482    0.0922 C.ar    1  UNL1        0.0000
     13 C          -0.0795    0.9659    0.0634 C.ar    1  UNL1        0.0000
     14 C           0.6718    2.1533    0.0512 C.ar    1  UNL1        0.0000
     15 C           2.0684    2.1218    0.0169 C.ar    1  UNL1        0.0000
     16 C           2.7488    0.9041   -0.0131 C.ar    1  UNL1        0.0000
     17 C           2.0103   -0.2860    0.0106 C.ar    1  UNL1        0.0000
     18 C           0.6032   -0.2739    0.0461 C.ar    1  UNL1        0.0000
     19 C          -0.2098   -1.5197    0.0722 C.ar    1  UNL1        0.0000
     20 C           0.3108   -2.7669    0.0765 C.2     1  UNL1        0.0000
     21 C           4.2063    0.8856   -0.0454 C.2     1  UNL1        0.0000
     22 C           5.0392    1.3608    0.9041 C.2     1  UNL1        0.0000
     23 C           6.4579    1.2241    0.6112 C.2     1  UNL1        0.0000
     24 C           6.7479    0.6476   -0.5695 C.2     1  UNL1        0.0000
     25 SI          5.1824    0.1820   -1.5066 Si      1  UNL1        0.0000
     26 H          -1.0685   -4.8795   -1.1093 H       1  UNL1        0.0000
     27 H          -0.9983   -4.8448    1.3973 H       1  UNL1        0.0000
     28 H          -3.3097   -2.9674    0.1909 H       1  UNL1        0.0000
     29 H          -4.9098   -1.7397    0.0853 H       1  UNL1        0.0000
     30 H          -7.1196   -0.7220    0.1085 H       1  UNL1        0.0000
     31 H          -7.3765    1.7377    0.1373 H       1  UNL1        0.0000
     32 H          -5.3678    3.1916    0.1400 H       1  UNL1        0.0000
     33 H           0.1902    3.1273    0.0675 H       1  UNL1        0.0000
     34 H           2.6186    3.0607    0.0067 H       1  UNL1        0.0000
     35 H           2.5478   -1.2297    0.0146 H       1  UNL1        0.0000
     36 H           1.3464   -3.0621    0.0599 H       1  UNL1        0.0000
     37 H           4.7091    1.8131    1.8318 H       1  UNL1        0.0000
     38 H           7.2061    1.5710    1.3134 H       1  UNL1        0.0000
     39 H           7.7279    0.4537   -0.9756 H       1  UNL1        0.0000
     40 H           5.0263    0.9764   -2.7505 H       1  UNL1        0.0000
     41 H           5.0311   -1.2897   -1.6374 H       1  UNL1        0.0000
@<TRIPOS>BOND
     1     1     2    1
     2     2     3    2
     3     3     4   ar
     4     4     5   ar
     5     5     6   ar
     6     6     7   ar
     7     7     8   ar
     8     8     9   ar
     9     9    10   ar
    10    10    11   ar
    11    11    12   ar
    12    12    13   ar
    13    13    14   ar
    14    14    15   ar
    15    15    16   ar
    16    16    17   ar
    17    17    18   ar
    18    18    19   ar
    19    19    20    2
    20    16    21    1
    21    21    22    2
    22    22    23    1
    23    23    24    2
    24    24    25    1
    25    20     1    1
    26    25    21    1
    27    19     3   ar
    28    12     4   ar
    29    18    13   ar
    30    10     5   ar
    31     1    26    1
    32     1    27    1
    33     2    28    1
    34     6    29    1
    35     7    30    1
    36     8    31    1
    37     9    32    1
    38    14    33    1
    39    15    34    1
    40    17    35    1
    41    20    36    1
    42    22    37    1
    43    23    38    1
    44    24    39    1
    45    25    40    1
    46    25    41    1
