@<TRIPOS>MOLECULE
*****
 40 46 0 0 0
SMALL
GASTEIGER

@<TRIPOS>ATOM
      1 SI         -1.8298    3.8811   -0.9796 Si      1  UNL1        0.0000
      2 C          -0.4204    2.7225   -0.6435 C.2     1  UNL1        0.0000
      3 C          -0.8641    1.4799   -0.3753 C.ar    1  UNL1        0.0000
      4 C          -0.0749    0.3453   -0.0741 C.ar    1  UNL1        0.0000
      5 C           1.3052    0.1693    0.0320 C.ar    1  UNL1        0.0000
      6 O           2.4429    0.8967   -0.0835 O.2     1  UNL1        0.0000
      7 C           3.4764    0.0134    0.1709 C.ar    1  UNL1        0.0000
      8 C           2.9812   -1.2565    0.4430 C.ar    1  UNL1        0.0000
      9 C           1.5849   -1.1079    0.3425 C.ar    1  UNL1        0.0000
     10 N           0.3940   -1.7853    0.4440 N.ar    1  UNL1        0.0000
     11 C          -0.6384   -0.9017    0.1895 C.ar    1  UNL1        0.0000
     12 C          -2.0887   -1.1373    0.1759 C.ar    1  UNL1        0.0000
     13 C          -2.7835   -2.3417    0.4233 C.ar    1  UNL1        0.0000
     14 C          -2.2430   -3.5679    0.7340 C.ar    1  UNL1        0.0000
     15 S          -3.4383   -4.7874    0.9614 S.2     1  UNL1        0.0000
     16 C          -4.7136   -3.6908    0.6462 C.ar    1  UNL1        0.0000
     17 C          -4.2314   -2.4337    0.3765 C.ar    1  UNL1        0.0000
     18 C          -5.0963   -1.3814    0.0909 C.ar    1  UNL1        0.0000
     19 C          -4.4083   -0.1763   -0.1570 C.ar    1  UNL1        0.0000
     20 C          -2.9774   -0.0307   -0.1234 C.ar    1  UNL1        0.0000
     21 C          -2.3445    1.3068   -0.4048 C.ar    1  UNL1        0.0000
     22 C          -3.0067    2.4480   -0.7016 C.2     1  UNL1        0.0000
     23 C           4.8493    0.4576    0.1323 C.ar    1  UNL1        0.0000
     24 C           5.2819    1.7411   -0.1462 C.ar    1  UNL1        0.0000
     25 C           6.7015    1.8656   -0.1080 C.ar    1  UNL1        0.0000
     26 C           7.3116    0.6710    0.1991 C.ar    1  UNL1        0.0000
     27 S           6.1764   -0.5846    0.4378 S.2     1  UNL1        0.0000
     28 H          -1.9784    4.9306    0.0574 H       1  UNL1        0.0000
     29 H          -1.8634    4.3632   -2.3814 H       1  UNL1        0.0000
     30 H           0.6076    3.0489   -0.6710 H       1  UNL1        0.0000
     31 H           3.5483   -2.1452    0.6766 H       1  UNL1        0.0000
     32 H           0.3526   -2.7671    0.6706 H       1  UNL1        0.0000
     33 H          -1.2218   -3.8779    0.8542 H       1  UNL1        0.0000
     34 H          -5.7396   -4.0316    0.6772 H       1  UNL1        0.0000
     35 H          -6.1759   -1.4509    0.0562 H       1  UNL1        0.0000
     36 H          -5.0268    0.6892   -0.3875 H       1  UNL1        0.0000
     37 H          -4.0669    2.6116   -0.7896 H       1  UNL1        0.0000
     38 H           4.6039    2.5571   -0.3683 H       1  UNL1        0.0000
     39 H           7.2439    2.7839   -0.2962 H       1  UNL1        0.0000
     40 H           8.3703    0.4729    0.2953 H       1  UNL1        0.0000
@<TRIPOS>BOND
     1     1     2    1
     2     2     3    2
     3     3     4   ar
     4     4     5   ar
     5     5     6   ar
     6     6     7   ar
     7     7     8   ar
     8     8     9   ar
     9     9    10   ar
    10    10    11   ar
    11    11    12   ar
    12    12    13   ar
    13    13    14   ar
    14    14    15   ar
    15    15    16   ar
    16    16    17   ar
    17    17    18   ar
    18    18    19   ar
    19    19    20   ar
    20    20    21   ar
    21    21    22    2
    22     7    23    1
    23    23    24   ar
    24    24    25   ar
    25    25    26   ar
    26    26    27   ar
    27    22     1    1
    28    27    23   ar
    29    21     3   ar
    30    11     4   ar
    31    20    12   ar
    32     9     5   ar
    33    17    13   ar
    34     1    28    1
    35     1    29    1
    36     2    30    1
    37     8    31    1
    38    10    32    1
    39    14    33    1
    40    16    34    1
    41    18    35    1
    42    19    36    1
    43    22    37    1
    44    24    38    1
    45    25    39    1
    46    26    40    1
