@<TRIPOS>MOLECULE
*****
 35 40 0 0 0
SMALL
GASTEIGER

@<TRIPOS>ATOM
      1 SI         -1.5573    3.7335   -1.1395 Si      1  UNL1        0.0000
      2 C          -2.6683    2.3157   -0.6762 C.2     1  UNL1        0.0000
      3 C          -1.9588    1.2296   -0.3142 C.ar    1  UNL1        0.0000
      4 C          -2.4710   -0.0330    0.1006 C.ar    1  UNL1        0.0000
      5 C          -3.8053   -0.4515    0.2327 C.ar    1  UNL1        0.0000
      6 O          -5.0172    0.1438    0.0305 O.2     1  UNL1        0.0000
      7 C          -5.9353   -0.8099    0.3414 C.ar    1  UNL1        0.0000
      8 C          -5.3621   -1.9933    0.7350 C.ar    1  UNL1        0.0000
      9 C          -3.9720   -1.7302    0.6544 C.ar    1  UNL1        0.0000
     10 S          -2.4434   -2.5045    0.9173 S.2     1  UNL1        0.0000
     11 C          -1.6123   -1.0666    0.4461 C.ar    1  UNL1        0.0000
     12 C          -0.1393   -0.9488    0.4139 C.ar    1  UNL1        0.0000
     13 C           0.7340   -1.9727    0.7563 C.ar    1  UNL1        0.0000
     14 N           2.0847   -1.8689    0.7283 N.ar    1  UNL1        0.0000
     15 C           2.6230   -0.6869    0.3403 C.ar    1  UNL1        0.0000
     16 C           1.8316    0.3998   -0.0224 C.ar    1  UNL1        0.0000
     17 C           0.4354    0.2800    0.0106 C.ar    1  UNL1        0.0000
     18 C          -0.4786    1.4004   -0.3638 C.ar    1  UNL1        0.0000
     19 C          -0.0878    2.6289   -0.7679 C.2     1  UNL1        0.0000
     20 C           4.0991   -0.6790    0.3446 C.ar    1  UNL1        0.0000
     21 C           4.9532   -1.7160    0.6924 C.ar    1  UNL1        0.0000
     22 C           6.3317   -1.3737    0.5854 C.ar    1  UNL1        0.0000
     23 C           6.5029   -0.0790    0.1570 C.ar    1  UNL1        0.0000
     24 S           5.0117    0.7076   -0.1108 S.2     1  UNL1        0.0000
     25 H          -1.6389    4.0829   -2.5777 H       1  UNL1        0.0000
     26 H          -1.6498    4.8707   -0.1933 H       1  UNL1        0.0000
     27 H          -3.7428    2.4088   -0.7119 H       1  UNL1        0.0000
     28 H          -6.9647   -0.4946    0.2325 H       1  UNL1        0.0000
     29 H          -5.8619   -2.9024    1.0330 H       1  UNL1        0.0000
     30 H           0.3809   -2.9484    1.0770 H       1  UNL1        0.0000
     31 H           2.2908    1.3310   -0.3279 H       1  UNL1        0.0000
     32 H           0.9110    3.0133   -0.8903 H       1  UNL1        0.0000
     33 H           4.5918   -2.6870    1.0125 H       1  UNL1        0.0000
     34 H           7.1514   -2.0444    0.8116 H       1  UNL1        0.0000
     35 H           7.4337    0.4448   -0.0123 H       1  UNL1        0.0000
@<TRIPOS>BOND
     1     1     2    1
     2     2     3    2
     3     3     4   ar
     4     4     5   ar
     5     5     6   ar
     6     6     7   ar
     7     7     8   ar
     8     8     9   ar
     9     9    10   ar
    10    10    11   ar
    11    11    12   ar
    12    12    13   ar
    13    13    14   ar
    14    14    15   ar
    15    15    16   ar
    16    16    17   ar
    17    17    18   ar
    18    18    19    2
    19    15    20    1
    20    20    21   ar
    21    21    22   ar
    22    22    23   ar
    23    23    24   ar
    24    19     1    1
    25    24    20   ar
    26    18     3   ar
    27    11     4   ar
    28    17    12   ar
    29     9     5   ar
    30     1    25    1
    31     1    26    1
    32     2    27    1
    33     7    28    1
    34     8    29    1
    35    13    30    1
    36    16    31    1
    37    19    32    1
    38    21    33    1
    39    22    34    1
    40    23    35    1
