@<TRIPOS>MOLECULE
*****
 39 45 0 0 0
SMALL
GASTEIGER

@<TRIPOS>ATOM
      1 SI          1.8759   -2.6720   -3.2518 Si      1  UNL1        0.0000
      2 C           3.0469   -1.7843   -2.1083 C.2     1  UNL1        0.0000
      3 C           2.3803   -1.0224   -1.2219 C.ar    1  UNL1        0.0000
      4 C           2.9296   -0.2085   -0.2019 C.ar    1  UNL1        0.0000
      5 C           4.2352    0.0887    0.2346 C.ar    1  UNL1        0.0000
      6 S           5.9018   -0.2559   -0.0879 S.2     1  UNL1        0.0000
      7 C           6.3751    0.7878    1.2081 C.ar    1  UNL1        0.0000
      8 C           5.3212    1.3837    1.8710 C.ar    1  UNL1        0.0000
      9 C           4.1171    0.9550    1.2804 C.ar    1  UNL1        0.0000
     10 O           2.8036    1.2353    1.5458 O.2     1  UNL1        0.0000
     11 C           2.1110    0.5147    0.6297 C.ar    1  UNL1        0.0000
     12 C           0.6593    0.5408    0.5784 C.ar    1  UNL1        0.0000
     13 C          -0.1522    1.3053    1.4585 C.ar    1  UNL1        0.0000
     14 N           0.2443    2.1131    2.4579 N.ar    1  UNL1        0.0000
     15 S          -1.1137    2.7597    3.1403 S.2     1  UNL1        0.0000
     16 N          -2.2875    2.0458    2.2198 N.ar    1  UNL1        0.0000
     17 C          -1.6656    1.2614    1.3215 C.ar    1  UNL1        0.0000
     18 C          -2.2806    0.4564    0.3155 C.ar    1  UNL1        0.0000
     19 C          -1.4093   -0.2739   -0.5289 C.ar    1  UNL1        0.0000
     20 C           0.0048   -0.2513   -0.4215 C.ar    1  UNL1        0.0000
     21 C           0.8855   -1.0543   -1.3458 C.ar    1  UNL1        0.0000
     22 C           0.4502   -1.8559   -2.3425 C.2     1  UNL1        0.0000
     23 C          -3.7301    0.3961    0.1524 C.2     1  UNL1        0.0000
     24 C          -4.4088    0.5567   -1.0047 C.2     1  UNL1        0.0000
     25 C          -5.8501    0.3818   -0.9178 C.2     1  UNL1        0.0000
     26 C          -6.3179    0.0678    0.3033 C.2     1  UNL1        0.0000
     27 SI         -4.9230   -0.0294    1.5666 Si      1  UNL1        0.0000
     28 H           1.8882   -4.1411   -3.0575 H       1  UNL1        0.0000
     29 H           1.9784   -2.2033   -4.6540 H       1  UNL1        0.0000
     30 H           4.1148   -1.9063   -2.1951 H       1  UNL1        0.0000
     31 H           7.4300    0.9081    1.4153 H       1  UNL1        0.0000
     32 H           5.4097    2.0659    2.7049 H       1  UNL1        0.0000
     33 H          -1.8705   -0.8931   -1.2976 H       1  UNL1        0.0000
     34 H          -0.5604   -2.0639   -2.6514 H       1  UNL1        0.0000
     35 H          -3.9479    0.7929   -1.9566 H       1  UNL1        0.0000
     36 H          -6.4789    0.4982   -1.7920 H       1  UNL1        0.0000
     37 H          -7.3448   -0.1037    0.5842 H       1  UNL1        0.0000
     38 H          -5.0846    1.0212    2.6006 H       1  UNL1        0.0000
     39 H          -4.7369   -1.4171    2.0617 H       1  UNL1        0.0000
@<TRIPOS>BOND
     1     1     2    1
     2     2     3    2
     3     3     4   ar
     4     4     5   ar
     5     5     6   ar
     6     6     7   ar
     7     7     8   ar
     8     8     9   ar
     9     9    10   ar
    10    10    11   ar
    11    11    12   ar
    12    12    13   ar
    13    13    14   ar
    14    14    15   ar
    15    15    16   ar
    16    16    17   ar
    17    17    18   ar
    18    18    19   ar
    19    19    20   ar
    20    20    21   ar
    21    21    22    2
    22    18    23    1
    23    23    24    2
    24    24    25    1
    25    25    26    2
    26    26    27    1
    27    22     1    1
    28    27    23    1
    29    21     3   ar
    30    11     4   ar
    31    20    12   ar
    32     9     5   ar
    33    17    13   ar
    34     1    28    1
    35     1    29    1
    36     2    30    1
    37     7    31    1
    38     8    32    1
    39    19    33    1
    40    22    34    1
    41    24    35    1
    42    25    36    1
    43    26    37    1
    44    27    38    1
    45    27    39    1
