@<TRIPOS>MOLECULE
*****
 43 50 0 0 0
SMALL
GASTEIGER

@<TRIPOS>ATOM
      1 SI         -2.3398   -3.7187   -2.2392 Si      1  UNL1        0.0000
      2 C          -3.4212   -2.4061   -1.4899 C.2     1  UNL1        0.0000
      3 C          -2.7049   -1.3895   -0.9679 C.ar    1  UNL1        0.0000
      4 C          -3.2054   -0.2141   -0.3144 C.ar    1  UNL1        0.0000
      5 C          -4.5728    0.1394   -0.0658 C.ar    1  UNL1        0.0000
      6 S          -6.1560   -0.5496   -0.3731 S.2     1  UNL1        0.0000
      7 C          -6.9130    0.7849    0.3805 C.ar    1  UNL1        0.0000
      8 C          -6.0318    1.7253    0.8550 C.ar    1  UNL1        0.0000
      9 C          -4.6836    1.3366    0.5892 C.ar    1  UNL1        0.0000
     10 S          -3.1353    2.0504    0.9160 S.2     1  UNL1        0.0000
     11 C          -2.3221    0.7476    0.1660 C.ar    1  UNL1        0.0000
     12 C          -0.8538    0.6394    0.0450 C.ar    1  UNL1        0.0000
     13 C           0.1411    1.5433    0.4783 C.ar    1  UNL1        0.0000
     14 C           0.0198    2.7626    1.1058 C.ar    1  UNL1        0.0000
     15 N           1.2828    3.2765    1.3099 N.ar    1  UNL1        0.0000
     16 C           2.2277    2.4091    0.8244 C.ar    1  UNL1        0.0000
     17 C           1.5572    1.3240    0.3120 C.ar    1  UNL1        0.0000
     18 C           2.1327    0.2062   -0.2944 C.ar    1  UNL1        0.0000
     19 C           1.1517   -0.7055   -0.7432 C.ar    1  UNL1        0.0000
     20 C          -0.2734   -0.5194   -0.5935 C.ar    1  UNL1        0.0000
     21 C          -1.2275   -1.5523   -1.1109 C.ar    1  UNL1        0.0000
     22 C          -0.8650   -2.6926   -1.7408 C.2     1  UNL1        0.0000
     23 C           3.5597    0.0022   -0.4293 C.ar    1  UNL1        0.0000
     24 S           4.2844   -0.1063   -1.9933 S.2     1  UNL1        0.0000
     25 C           5.8725   -0.3234   -1.3567 C.ar    1  UNL1        0.0000
     26 C           5.8414   -0.3218    0.0082 C.ar    1  UNL1        0.0000
     27 S           7.1563   -0.5121    1.2232 S.2     1  UNL1        0.0000
     28 C           5.8711   -0.3477    2.4140 C.ar    1  UNL1        0.0000
     29 C           4.5784   -0.1640    1.9094 C.ar    1  UNL1        0.0000
     30 C           4.5462   -0.1404    0.4900 C.ar    1  UNL1        0.0000
     31 H          -2.4059   -5.0042   -1.5040 H       1  UNL1        0.0000
     32 H          -2.4894   -3.8139   -3.7109 H       1  UNL1        0.0000
     33 H          -4.4896   -2.5267   -1.5155 H       1  UNL1        0.0000
     34 H          -7.9927    0.8131    0.4397 H       1  UNL1        0.0000
     35 H          -6.3243    2.6362    1.3612 H       1  UNL1        0.0000
     36 H          -0.8245    3.3484    1.4333 H       1  UNL1        0.0000
     37 H           1.4802    4.1689    1.7446 H       1  UNL1        0.0000
     38 H           3.2799    2.6537    0.8852 H       1  UNL1        0.0000
     39 H           1.5182   -1.6094   -1.2261 H       1  UNL1        0.0000
     40 H           0.1226   -3.0516   -1.9750 H       1  UNL1        0.0000
     41 H           6.7395   -0.4433   -1.9912 H       1  UNL1        0.0000
     42 H           6.1569   -0.4004    3.4558 H       1  UNL1        0.0000
     43 H           3.7116   -0.0544    2.5504 H       1  UNL1        0.0000
@<TRIPOS>BOND
     1     1     2    1
     2     2     3    2
     3     3     4   ar
     4     4     5   ar
     5     5     6   ar
     6     6     7   ar
     7     7     8   ar
     8     8     9   ar
     9     9    10   ar
    10    10    11   ar
    11    11    12   ar
    12    12    13   ar
    13    13    14   ar
    14    14    15   ar
    15    15    16   ar
    16    16    17   ar
    17    17    18   ar
    18    18    19   ar
    19    19    20   ar
    20    20    21   ar
    21    21    22    2
    22    18    23    1
    23    23    24   ar
    24    24    25   ar
    25    25    26   ar
    26    26    27   ar
    27    27    28   ar
    28    28    29   ar
    29    29    30   ar
    30    22     1    1
    31    30    23   ar
    32    21     3   ar
    33    30    26   ar
    34    11     4   ar
    35    20    12   ar
    36     9     5   ar
    37    17    13   ar
    38     1    31    1
    39     1    32    1
    40     2    33    1
    41     7    34    1
    42     8    35    1
    43    14    36    1
    44    15    37    1
    45    16    38    1
    46    19    39    1
    47    22    40    1
    48    25    41    1
    49    28    42    1
    50    29    43    1
