@<TRIPOS>MOLECULE
*****
 47 54 0 0 0
SMALL
GASTEIGER

@<TRIPOS>ATOM
      1 SI         -1.3576    3.9330    1.7012 Si      1  UNL1        0.0000
      2 C           0.3321    3.3759    1.1602 C.2     1  UNL1        0.0000
      3 C           0.2953    2.1169    0.6824 C.ar    1  UNL1        0.0000
      4 C           1.4214    1.3073    0.3611 C.ar    1  UNL1        0.0000
      5 C           2.7906    1.6103    0.2078 C.ar    1  UNL1        0.0000
      6 C           3.4266    0.4380   -0.1616 C.ar    1  UNL1        0.0000
      7 N           2.4597   -0.5431   -0.2304 N.ar    1  UNL1        0.0000
      8 C           1.2413   -0.0497    0.1640 C.ar    1  UNL1        0.0000
      9 C          -0.0572   -0.7212    0.1745 C.ar    1  UNL1        0.0000
     10 C          -0.2932   -2.1033    0.1898 C.ar    1  UNL1        0.0000
     11 C           0.6667   -3.0576    0.4434 C.ar    1  UNL1        0.0000
     12 S           0.0298   -4.6479    0.4086 S.2     1  UNL1        0.0000
     13 C          -1.5563   -4.0710    0.1145 C.ar    1  UNL1        0.0000
     14 C          -1.6108   -2.6952    0.0437 C.ar    1  UNL1        0.0000
     15 C          -2.8110   -1.9602   -0.1911 C.ar    1  UNL1        0.0000
     16 C          -4.1081   -2.5891   -0.3966 C.ar    1  UNL1        0.0000
     17 C          -5.2843   -1.8935   -0.7143 C.ar    1  UNL1        0.0000
     18 C          -5.0353   -0.5391   -0.8824 C.ar    1  UNL1        0.0000
     19 C          -6.0259    0.3070   -1.3198 C.ar    1  UNL1        0.0000
     20 S          -5.4173    1.8843   -1.5925 S.2     1  UNL1        0.0000
     21 C          -3.8295    1.4179   -1.1329 C.ar    1  UNL1        0.0000
     22 C          -3.7655    0.1223   -0.6651 C.ar    1  UNL1        0.0000
     23 C          -2.5609   -0.5201   -0.2094 C.ar    1  UNL1        0.0000
     24 C          -1.2578    0.0676    0.1416 C.ar    1  UNL1        0.0000
     25 C          -1.0620    1.4910    0.6164 C.ar    1  UNL1        0.0000
     26 C          -2.0092    2.2513    1.2105 C.2     1  UNL1        0.0000
     27 C           4.8014    0.1848   -0.4678 C.ar    1  UNL1        0.0000
     28 C           5.4384   -0.9860   -0.8369 C.ar    1  UNL1        0.0000
     29 C           6.8130   -0.6955   -1.0249 C.ar    1  UNL1        0.0000
     30 C           6.9852    0.6440   -0.7664 C.ar    1  UNL1        0.0000
     31 N           5.7638    1.1670   -0.4301 N.ar    1  UNL1        0.0000
     32 H          -1.8982    5.0161    0.8451 H       1  UNL1        0.0000
     33 H          -1.4392    4.1701    3.1623 H       1  UNL1        0.0000
     34 H           1.2073    3.9815    1.3303 H       1  UNL1        0.0000
     35 H           3.2523    2.5802    0.3260 H       1  UNL1        0.0000
     36 H           2.6325   -1.4778   -0.5661 H       1  UNL1        0.0000
     37 H           1.7116   -2.9402    0.6843 H       1  UNL1        0.0000
     38 H          -2.3501   -4.7972    0.0225 H       1  UNL1        0.0000
     39 H          -4.1955   -3.6715   -0.3176 H       1  UNL1        0.0000
     40 H          -6.2332   -2.3868   -0.8769 H       1  UNL1        0.0000
     41 H          -7.0625    0.0853   -1.5343 H       1  UNL1        0.0000
     42 H          -3.0376    2.1438   -1.2425 H       1  UNL1        0.0000
     43 H          -3.0350    1.9928    1.4179 H       1  UNL1        0.0000
     44 H           4.9760   -1.9556   -0.9614 H       1  UNL1        0.0000
     45 H           7.5903   -1.3897   -1.3168 H       1  UNL1        0.0000
     46 H           7.8670    1.2699   -0.7919 H       1  UNL1        0.0000
     47 H           5.5909    2.1329   -0.1894 H       1  UNL1        0.0000
@<TRIPOS>BOND
     1     1     2    1
     2     2     3    2
     3     3     4   ar
     4     4     5   ar
     5     5     6   ar
     6     6     7   ar
     7     7     8   ar
     8     8     9   ar
     9     9    10   ar
    10    10    11   ar
    11    11    12   ar
    12    12    13   ar
    13    13    14   ar
    14    14    15   ar
    15    15    16   ar
    16    16    17   ar
    17    17    18   ar
    18    18    19   ar
    19    19    20   ar
    20    20    21   ar
    21    21    22   ar
    22    22    23   ar
    23    23    24   ar
    24    24    25   ar
    25    25    26    2
    26     6    27    1
    27    27    28   ar
    28    28    29   ar
    29    29    30   ar
    30    30    31   ar
    31    26     1    1
    32    31    27   ar
    33    25     3   ar
    34     8     4   ar
    35    24     9   ar
    36    14    10   ar
    37    23    15   ar
    38    22    18   ar
    39     1    32    1
    40     1    33    1
    41     2    34    1
    42     5    35    1
    43     7    36    1
    44    11    37    1
    45    13    38    1
    46    16    39    1
    47    17    40    1
    48    19    41    1
    49    21    42    1
    50    26    43    1
    51    28    44    1
    52    29    45    1
    53    30    46    1
    54    31    47    1
