@<TRIPOS>MOLECULE
*****
 47 54 0 0 0
SMALL
GASTEIGER

@<TRIPOS>ATOM
      1 SI         -0.5451    0.6767   -1.3955 Si      1  UNL1        0.0000
      2 C          -1.7043   -0.3634   -0.3134 C.2     1  UNL1        0.0000
      3 C          -1.0510   -1.1359    0.5755 C.2     1  UNL1        0.0000
      4 C           0.3963   -0.9799    0.4935 C.ar    1  UNL1        0.0000
      5 C           0.9505   -0.0818   -0.4660 C.ar    1  UNL1        0.0000
      6 C           2.3766    0.1544   -0.6386 C.ar    1  UNL1        0.0000
      7 C           2.9277    1.0605   -1.6079 C.ar    1  UNL1        0.0000
      8 N           2.2401    1.8186   -2.4914 N.ar    1  UNL1        0.0000
      9 S           3.3428    2.6908   -3.3874 S.2     1  UNL1        0.0000
     10 N           4.7682    2.1551   -2.7047 N.ar    1  UNL1        0.0000
     11 C           4.3477    1.2989   -1.7828 C.ar    1  UNL1        0.0000
     12 C           5.2687    0.5937   -0.9439 C.ar    1  UNL1        0.0000
     13 C           6.6689    0.7522   -1.0316 C.ar    1  UNL1        0.0000
     14 C           7.2896   -0.0494   -0.1050 C.ar    1  UNL1        0.0000
     15 S           6.1709   -0.9491    0.8212 S.2     1  UNL1        0.0000
     16 C           4.7813   -0.2913    0.0057 C.ar    1  UNL1        0.0000
     17 C           3.3851   -0.5224    0.1741 C.ar    1  UNL1        0.0000
     18 C           2.7856   -1.4027    1.1120 C.ar    1  UNL1        0.0000
     19 C           3.3779   -2.2167    2.0515 C.ar    1  UNL1        0.0000
     20 N           2.3849   -2.8890    2.7346 N.ar    1  UNL1        0.0000
     21 C           1.1515   -2.5256    2.2544 C.ar    1  UNL1        0.0000
     22 C           1.3671   -1.6114    1.2541 C.ar    1  UNL1        0.0000
     23 C          -3.1565   -0.2948   -0.4853 C.ar    1  UNL1        0.0000
     24 C          -3.7359   -1.1735   -1.4148 C.ar    1  UNL1        0.0000
     25 C          -5.1096   -1.1693   -1.6324 C.ar    1  UNL1        0.0000
     26 C          -5.9213   -0.2919   -0.9180 C.ar    1  UNL1        0.0000
     27 C          -5.3752    0.5883    0.0286 C.ar    1  UNL1        0.0000
     28 C          -6.2115    1.4607    0.7456 C.ar    1  UNL1        0.0000
     29 C          -5.6900    2.3383    1.6949 C.ar    1  UNL1        0.0000
     30 C          -4.3239    2.3542    1.9420 C.ar    1  UNL1        0.0000
     31 C          -3.4793    1.4940    1.2370 C.ar    1  UNL1        0.0000
     32 C          -3.9768    0.5949    0.2635 C.ar    1  UNL1        0.0000
     33 H          -0.6054    0.2463   -2.8178 H       1  UNL1        0.0000
     34 H          -0.7007    2.1288   -1.1173 H       1  UNL1        0.0000
     35 H          -1.5251   -1.8030    1.2816 H       1  UNL1        0.0000
     36 H           7.1980    1.4023   -1.7185 H       1  UNL1        0.0000
     37 H           8.3509   -0.1525    0.0757 H       1  UNL1        0.0000
     38 H           4.4034   -2.4069    2.3269 H       1  UNL1        0.0000
     39 H           2.5456   -3.5531    3.4811 H       1  UNL1        0.0000
     40 H           0.2496   -2.9523    2.6714 H       1  UNL1        0.0000
     41 H          -3.1143   -1.8687   -1.9757 H       1  UNL1        0.0000
     42 H          -5.5482   -1.8502   -2.3569 H       1  UNL1        0.0000
     43 H          -6.9934   -0.3040   -1.1033 H       1  UNL1        0.0000
     44 H          -7.2850    1.4616    0.5690 H       1  UNL1        0.0000
     45 H          -6.3512    3.0058    2.2407 H       1  UNL1        0.0000
     46 H          -3.9101    3.0331    2.6828 H       1  UNL1        0.0000
     47 H          -2.4153    1.5300    1.4609 H       1  UNL1        0.0000
@<TRIPOS>BOND
     1     1     2    1
     2     2     3    2
     3     3     4    1
     4     4     5   ar
     5     5     6   ar
     6     6     7   ar
     7     7     8   ar
     8     8     9   ar
     9     9    10   ar
    10    10    11   ar
    11    11    12   ar
    12    12    13   ar
    13    13    14   ar
    14    14    15   ar
    15    15    16   ar
    16    16    17   ar
    17    17    18   ar
    18    18    19   ar
    19    19    20   ar
    20    20    21   ar
    21    21    22   ar
    22     2    23    1
    23    23    24   ar
    24    24    25   ar
    25    25    26   ar
    26    26    27   ar
    27    27    28   ar
    28    28    29   ar
    29    29    30   ar
    30    30    31   ar
    31    31    32   ar
    32     5     1    1
    33    17     6   ar
    34    22    18   ar
    35    32    23   ar
    36    22     4   ar
    37    32    27   ar
    38    11     7   ar
    39    16    12   ar
    40     1    33    1
    41     1    34    1
    42     3    35    1
    43    13    36    1
    44    14    37    1
    45    19    38    1
    46    20    39    1
    47    21    40    1
    48    24    41    1
    49    25    42    1
    50    26    43    1
    51    28    44    1
    52    29    45    1
    53    30    46    1
    54    31    47    1
