@<TRIPOS>MOLECULE
*****
 46 53 0 0 0
SMALL
GASTEIGER

@<TRIPOS>ATOM
      1 SI         -0.7806   -4.4184   -0.5713 Si      1  UNL1        0.0000
      2 C           0.8269   -3.5536   -0.2239 C.2     1  UNL1        0.0000
      3 C           0.6511   -2.2206   -0.1429 C.ar    1  UNL1        0.0000
      4 C           1.6817   -1.2409   -0.0785 C.ar    1  UNL1        0.0000
      5 C           3.0673   -1.3422    0.1572 C.ar    1  UNL1        0.0000
      6 C           3.5709   -0.0544    0.1622 C.ar    1  UNL1        0.0000
      7 N           2.5148    0.8007   -0.0639 N.ar    1  UNL1        0.0000
      8 C           1.3630    0.0886   -0.2938 C.ar    1  UNL1        0.0000
      9 C           0.0048    0.5883   -0.5022 C.ar    1  UNL1        0.0000
     10 C          -0.3666    1.8715   -0.9280 C.ar    1  UNL1        0.0000
     11 C           0.5004    2.8004   -1.4589 C.ar    1  UNL1        0.0000
     12 S          -0.2913    4.2557   -1.8959 S.2     1  UNL1        0.0000
     13 C          -1.8200    3.6321   -1.4383 C.ar    1  UNL1        0.0000
     14 C          -1.7400    2.3410   -0.9612 C.ar    1  UNL1        0.0000
     15 C          -2.8674    1.5890   -0.5152 C.ar    1  UNL1        0.0000
     16 C          -4.2258    2.1134   -0.5027 C.ar    1  UNL1        0.0000
     17 C          -5.3357    1.4256    0.0104 C.ar    1  UNL1        0.0000
     18 C          -4.9586    0.2146    0.5726 C.ar    1  UNL1        0.0000
     19 C          -5.8726   -0.5616    1.2439 C.ar    1  UNL1        0.0000
     20 S          -5.1187   -1.9163    1.9713 S.2     1  UNL1        0.0000
     21 C          -3.5725   -1.4459    1.3899 C.ar    1  UNL1        0.0000
     22 C          -3.6238   -0.3469    0.5585 C.ar    1  UNL1        0.0000
     23 C          -2.4765    0.2525   -0.0703 C.ar    1  UNL1        0.0000
     24 C          -1.1121   -0.2750   -0.2337 C.ar    1  UNL1        0.0000
     25 C          -0.7626   -1.7469   -0.2641 C.ar    1  UNL1        0.0000
     26 C          -1.6118   -2.7430   -0.6032 C.2     1  UNL1        0.0000
     27 C           4.9146    0.3830    0.3864 C.ar    1  UNL1        0.0000
     28 C           5.4377    1.6668    0.3997 C.ar    1  UNL1        0.0000
     29 C           6.8246    1.5549    0.6679 C.ar    1  UNL1        0.0000
     30 C           7.0750    0.2128    0.8034 C.ar    1  UNL1        0.0000
     31 O           5.9347   -0.5003    0.6358 O.2     1  UNL1        0.0000
     32 H          -0.8001   -5.0836   -1.8962 H       1  UNL1        0.0000
     33 H          -1.2408   -5.2476    0.5685 H       1  UNL1        0.0000
     34 H           1.7642   -4.0861   -0.2058 H       1  UNL1        0.0000
     35 H           3.6428   -2.2411    0.3356 H       1  UNL1        0.0000
     36 H           2.5793    1.8058   -0.0207 H       1  UNL1        0.0000
     37 H           1.5573    2.7238   -1.6598 H       1  UNL1        0.0000
     38 H          -2.6843    4.2671   -1.5643 H       1  UNL1        0.0000
     39 H          -4.4180    3.1088   -0.8998 H       1  UNL1        0.0000
     40 H          -6.3332    1.8442    0.0213 H       1  UNL1        0.0000
     41 H          -6.9316   -0.3945    1.3853 H       1  UNL1        0.0000
     42 H          -2.7162   -2.0218    1.7080 H       1  UNL1        0.0000
     43 H          -2.6517   -2.6665   -0.8762 H       1  UNL1        0.0000
     44 H           4.8895    2.5828    0.2355 H       1  UNL1        0.0000
     45 H           7.5493    2.3522    0.7514 H       1  UNL1        0.0000
     46 H           7.9628   -0.3688    1.0086 H       1  UNL1        0.0000
@<TRIPOS>BOND
     1     1     2    1
     2     2     3    2
     3     3     4   ar
     4     4     5   ar
     5     5     6   ar
     6     6     7   ar
     7     7     8   ar
     8     8     9   ar
     9     9    10   ar
    10    10    11   ar
    11    11    12   ar
    12    12    13   ar
    13    13    14   ar
    14    14    15   ar
    15    15    16   ar
    16    16    17   ar
    17    17    18   ar
    18    18    19   ar
    19    19    20   ar
    20    20    21   ar
    21    21    22   ar
    22    22    23   ar
    23    23    24   ar
    24    24    25   ar
    25    25    26    2
    26     6    27    1
    27    27    28   ar
    28    28    29   ar
    29    29    30   ar
    30    30    31   ar
    31    26     1    1
    32    31    27   ar
    33    25     3   ar
    34     8     4   ar
    35    24     9   ar
    36    14    10   ar
    37    23    15   ar
    38    22    18   ar
    39     1    32    1
    40     1    33    1
    41     2    34    1
    42     5    35    1
    43     7    36    1
    44    11    37    1
    45    13    38    1
    46    16    39    1
    47    17    40    1
    48    19    41    1
    49    21    42    1
    50    26    43    1
    51    28    44    1
    52    29    45    1
    53    30    46    1
