@<TRIPOS>MOLECULE
*****
 46 53 0 0 0
SMALL
GASTEIGER

@<TRIPOS>ATOM
      1 SI         -1.3488   -1.2997    3.8848 Si      1  UNL1        0.0000
      2 C           0.2574   -0.9626    3.0163 C.2     1  UNL1        0.0000
      3 C           0.0444   -0.5585    1.7490 C.ar    1  UNL1        0.0000
      4 C           1.0335   -0.4352    0.7334 C.ar    1  UNL1        0.0000
      5 C           2.4416   -0.5097    0.7671 C.ar    1  UNL1        0.0000
      6 C           2.8938   -0.3606   -0.5337 C.ar    1  UNL1        0.0000
      7 N           1.7773   -0.2046   -1.3317 N.ar    1  UNL1        0.0000
      8 C           0.6335   -0.2580   -0.5764 C.ar    1  UNL1        0.0000
      9 C          -0.7537   -0.0808   -1.0273 C.ar    1  UNL1        0.0000
     10 C          -1.0737    0.0182   -2.3826 C.ar    1  UNL1        0.0000
     11 C          -2.3853    0.2753   -2.7854 C.ar    1  UNL1        0.0000
     12 C          -3.3991    0.5469   -1.8629 C.ar    1  UNL1        0.0000
     13 C          -4.7057    0.8900   -2.3837 C.ar    1  UNL1        0.0000
     14 C          -5.8174    1.2915   -1.6151 C.ar    1  UNL1        0.0000
     15 C          -5.4538    1.3631   -0.2859 C.ar    1  UNL1        0.0000
     16 C          -6.2374    1.8415    0.7290 C.ar    1  UNL1        0.0000
     17 O          -5.5076    1.8769    1.8812 O.2     1  UNL1        0.0000
     18 C          -4.2567    1.4105    1.5852 C.ar    1  UNL1        0.0000
     19 C          -4.1885    1.0071    0.2732 C.ar    1  UNL1        0.0000
     20 C          -3.0686    0.4966   -0.4553 C.ar    1  UNL1        0.0000
     21 C          -1.7726    0.0353   -0.0374 C.ar    1  UNL1        0.0000
     22 C          -1.3888   -0.3913    1.3542 C.ar    1  UNL1        0.0000
     23 C          -2.2374   -0.8494    2.3009 C.2     1  UNL1        0.0000
     24 C           4.2253   -0.3525   -1.0592 C.ar    1  UNL1        0.0000
     25 S           4.6097   -0.1431   -2.7445 S.2     1  UNL1        0.0000
     26 C           6.3262   -0.2581   -2.4876 C.ar    1  UNL1        0.0000
     27 C           6.5281   -0.4462   -1.1672 C.ar    1  UNL1        0.0000
     28 C           7.5797   -0.6189   -0.2549 C.ar    1  UNL1        0.0000
     29 C           6.9552   -0.7582    0.9907 C.ar    1  UNL1        0.0000
     30 O           5.5753   -0.6876    0.9455 O.2     1  UNL1        0.0000
     31 C           5.3929   -0.4976   -0.3931 C.ar    1  UNL1        0.0000
     32 H          -1.6265   -0.3319    4.9734 H       1  UNL1        0.0000
     33 H          -1.5210   -2.7286    4.2417 H       1  UNL1        0.0000
     34 H           1.2071   -1.1940    3.4713 H       1  UNL1        0.0000
     35 H           3.0628   -0.6574    1.6406 H       1  UNL1        0.0000
     36 H           1.8159   -0.0569   -2.3295 H       1  UNL1        0.0000
     37 H          -0.3170   -0.1153   -3.1496 H       1  UNL1        0.0000
     38 H          -2.5906    0.3157   -3.8543 H       1  UNL1        0.0000
     39 H          -4.8517    0.8625   -3.4663 H       1  UNL1        0.0000
     40 H          -6.7728    1.5665   -2.0371 H       1  UNL1        0.0000
     41 H          -7.2474    2.2182    0.8039 H       1  UNL1        0.0000
     42 H          -3.5569    1.4594    2.4061 H       1  UNL1        0.0000
     43 H          -3.3040   -0.9834    2.2319 H       1  UNL1        0.0000
     44 H           7.0275   -0.1802   -3.3059 H       1  UNL1        0.0000
     45 H           8.6440   -0.6437   -0.4388 H       1  UNL1        0.0000
     46 H           7.3516   -0.9112    1.9860 H       1  UNL1        0.0000
@<TRIPOS>BOND
     1     1     2    1
     2     2     3    2
     3     3     4   ar
     4     4     5   ar
     5     5     6   ar
     6     6     7   ar
     7     7     8   ar
     8     8     9   ar
     9     9    10   ar
    10    10    11   ar
    11    11    12   ar
    12    12    13   ar
    13    13    14   ar
    14    14    15   ar
    15    15    16   ar
    16    16    17   ar
    17    17    18   ar
    18    18    19   ar
    19    19    20   ar
    20    20    21   ar
    21    21    22   ar
    22    22    23    2
    23     6    24    1
    24    24    25   ar
    25    25    26   ar
    26    26    27   ar
    27    27    28   ar
    28    28    29   ar
    29    29    30   ar
    30    30    31   ar
    31    23     1    1
    32    31    24   ar
    33    22     3   ar
    34    31    27   ar
    35     8     4   ar
    36    21     9   ar
    37    20    12   ar
    38    19    15   ar
    39     1    32    1
    40     1    33    1
    41     2    34    1
    42     5    35    1
    43     7    36    1
    44    10    37    1
    45    11    38    1
    46    13    39    1
    47    14    40    1
    48    16    41    1
    49    18    42    1
    50    23    43    1
    51    26    44    1
    52    28    45    1
    53    29    46    1
