@<TRIPOS>MOLECULE
*****
 40 45 0 0 0
SMALL
GASTEIGER

@<TRIPOS>ATOM
      1 SI         -1.8215   -4.1352   -0.2571 Si      1  UNL1        0.0000
      2 C          -0.1388   -3.3552   -0.2819 C.2     1  UNL1        0.0000
      3 C          -0.2170   -2.0236   -0.0922 C.ar    1  UNL1        0.0000
      4 C           0.8802   -1.1208   -0.0542 C.ar    1  UNL1        0.0000
      5 C           2.2697   -1.3206   -0.1911 C.ar    1  UNL1        0.0000
      6 C           2.8808   -0.0841   -0.0689 C.ar    1  UNL1        0.0000
      7 N           1.8769    0.8390    0.1374 N.ar    1  UNL1        0.0000
      8 C           0.6480    0.2231    0.1493 C.ar    1  UNL1        0.0000
      9 C          -0.6709    0.8433    0.3387 C.ar    1  UNL1        0.0000
     10 C          -0.7913    2.2191    0.5378 C.ar    1  UNL1        0.0000
     11 C          -2.0459    2.7846    0.7146 C.ar    1  UNL1        0.0000
     12 C          -3.1956    1.9880    0.6955 C.ar    1  UNL1        0.0000
     13 C          -4.4470    2.5946    0.8778 C.ar    1  UNL1        0.0000
     14 C          -5.6025    1.8313    0.8637 C.ar    1  UNL1        0.0000
     15 C          -5.4633    0.4783    0.6663 C.ar    1  UNL1        0.0000
     16 N          -4.2727   -0.1337    0.4880 N.ar    1  UNL1        0.0000
     17 C          -3.1210    0.5857    0.4963 C.ar    1  UNL1        0.0000
     18 C          -1.8367    0.0071    0.3153 C.ar    1  UNL1        0.0000
     19 C          -1.5986   -1.4752    0.0922 C.ar    1  UNL1        0.0000
     20 C          -2.5413   -2.4429    0.0328 C.2     1  UNL1        0.0000
     21 C           4.2761    0.2382   -0.1345 C.ar    1  UNL1        0.0000
     22 C           5.3539   -0.6062   -0.3350 C.ar    1  UNL1        0.0000
     23 C           6.5357    0.1736   -0.3211 C.ar    1  UNL1        0.0000
     24 C           6.1570    1.4785   -0.1125 C.ar    1  UNL1        0.0000
     25 N           4.7904    1.5074   -0.0010 N.ar    1  UNL1        0.0000
     26 H          -2.2017   -4.7055   -1.5727 H       1  UNL1        0.0000
     27 H          -2.0073   -5.0464    0.8987 H       1  UNL1        0.0000
     28 H           0.7545   -3.9389   -0.4327 H       1  UNL1        0.0000
     29 H           2.7766   -2.2608   -0.3606 H       1  UNL1        0.0000
     30 H           2.0222    1.8273    0.2623 H       1  UNL1        0.0000
     31 H           0.0757    2.8704    0.5592 H       1  UNL1        0.0000
     32 H          -2.1195    3.8593    0.8685 H       1  UNL1        0.0000
     33 H          -4.5284    3.6680    1.0321 H       1  UNL1        0.0000
     34 H          -6.5789    2.2795    1.0025 H       1  UNL1        0.0000
     35 H          -6.3273   -0.1793    0.6438 H       1  UNL1        0.0000
     36 H          -3.6083   -2.3407    0.1308 H       1  UNL1        0.0000
     37 H           5.2977   -1.6776   -0.4774 H       1  UNL1        0.0000
     38 H           7.5498   -0.1817   -0.4496 H       1  UNL1        0.0000
     39 H           6.7389    2.3868   -0.0338 H       1  UNL1        0.0000
     40 H           4.2513    2.3453    0.1561 H       1  UNL1        0.0000
@<TRIPOS>BOND
     1     1     2    1
     2     2     3    2
     3     3     4   ar
     4     4     5   ar
     5     5     6   ar
     6     6     7   ar
     7     7     8   ar
     8     8     9   ar
     9     9    10   ar
    10    10    11   ar
    11    11    12   ar
    12    12    13   ar
    13    13    14   ar
    14    14    15   ar
    15    15    16   ar
    16    16    17   ar
    17    17    18   ar
    18    18    19   ar
    19    19    20    2
    20     6    21    1
    21    21    22   ar
    22    22    23   ar
    23    23    24   ar
    24    24    25   ar
    25    20     1    1
    26    25    21   ar
    27    19     3   ar
    28     8     4   ar
    29    18     9   ar
    30    17    12   ar
    31     1    26    1
    32     1    27    1
    33     2    28    1
    34     5    29    1
    35     7    30    1
    36    10    31    1
    37    11    32    1
    38    13    33    1
    39    14    34    1
    40    15    35    1
    41    20    36    1
    42    22    37    1
    43    23    38    1
    44    24    39    1
    45    25    40    1
