@<TRIPOS>MOLECULE
*****
 41 47 0 0 0
SMALL
GASTEIGER

@<TRIPOS>ATOM
      1 SI         -0.8053   -3.8766   -1.0832 Si      1  UNL1        0.0000
      2 C           0.8192   -2.9764   -1.0027 C.2     1  UNL1        0.0000
      3 C           0.6587   -1.7333   -0.5096 C.ar    1  UNL1        0.0000
      4 C           1.7014   -0.8535   -0.1011 C.ar    1  UNL1        0.0000
      5 C           3.1042   -0.9188   -0.2312 C.ar    1  UNL1        0.0000
      6 C           3.6269    0.1992    0.3980 C.ar    1  UNL1        0.0000
      7 N           2.5607    0.9192    0.9004 N.ar    1  UNL1        0.0000
      8 C           1.3790    0.2855    0.6105 C.ar    1  UNL1        0.0000
      9 C           0.0154    0.7349    0.9089 C.ar    1  UNL1        0.0000
     10 C          -0.2598    1.8543    1.6756 C.ar    1  UNL1        0.0000
     11 N          -1.4992    2.3435    1.9041 N.ar    1  UNL1        0.0000
     12 C          -2.5379    1.7848    1.2765 C.ar    1  UNL1        0.0000
     13 C          -3.7940    2.4208    1.5037 C.ar    1  UNL1        0.0000
     14 C          -5.0276    2.0941    0.8967 C.ar    1  UNL1        0.0000
     15 C          -4.8288    1.0772   -0.0130 C.ar    1  UNL1        0.0000
     16 C          -5.7647    0.5818   -0.8793 C.ar    1  UNL1        0.0000
     17 O          -5.1719   -0.3287   -1.7053 O.2     1  UNL1        0.0000
     18 C          -3.8537   -0.4067   -1.3486 C.ar    1  UNL1        0.0000
     19 C          -3.6024    0.3899   -0.2582 C.ar    1  UNL1        0.0000
     20 C          -2.3671    0.6405    0.4180 C.ar    1  UNL1        0.0000
     21 C          -1.0754    0.0242    0.3516 C.ar    1  UNL1        0.0000
     22 C          -0.7538   -1.3282   -0.2213 C.ar    1  UNL1        0.0000
     23 C          -1.6187   -2.3581   -0.3476 C.2     1  UNL1        0.0000
     24 C           4.9939    0.6117    0.5482 C.ar    1  UNL1        0.0000
     25 C           6.1347   -0.0225    0.0880 C.ar    1  UNL1        0.0000
     26 N           7.3382    0.5972    0.3743 N.ar    1  UNL1        0.0000
     27 C           7.1009    1.6982    1.0498 C.ar    1  UNL1        0.0000
     28 S           5.4555    2.0483    1.3753 S.2     1  UNL1        0.0000
     29 H          -1.2518   -4.1260   -2.4746 H       1  UNL1        0.0000
     30 H          -0.8594   -5.0425   -0.1695 H       1  UNL1        0.0000
     31 H           1.7501   -3.4742   -1.2211 H       1  UNL1        0.0000
     32 H           3.6724   -1.6952   -0.7260 H       1  UNL1        0.0000
     33 H           2.6583    1.7944    1.3956 H       1  UNL1        0.0000
     34 H           0.5280    2.4217    2.1610 H       1  UNL1        0.0000
     35 H          -3.7946    3.2613    2.2022 H       1  UNL1        0.0000
     36 H          -5.9488    2.6256    1.0848 H       1  UNL1        0.0000
     37 H          -6.8111    0.7743   -1.0694 H       1  UNL1        0.0000
     38 H          -3.2584   -1.0456   -1.9838 H       1  UNL1        0.0000
     39 H          -2.6588   -2.3969   -0.0705 H       1  UNL1        0.0000
     40 H           6.1499   -0.9513   -0.4693 H       1  UNL1        0.0000
     41 H           7.8958    2.3518    1.3848 H       1  UNL1        0.0000
@<TRIPOS>BOND
     1     1     2    1
     2     2     3    2
     3     3     4   ar
     4     4     5   ar
     5     5     6   ar
     6     6     7   ar
     7     7     8   ar
     8     8     9   ar
     9     9    10   ar
    10    10    11   ar
    11    11    12   ar
    12    12    13   ar
    13    13    14   ar
    14    14    15   ar
    15    15    16   ar
    16    16    17   ar
    17    17    18   ar
    18    18    19   ar
    19    19    20   ar
    20    20    21   ar
    21    21    22   ar
    22    22    23    2
    23     6    24    1
    24    24    25   ar
    25    25    26   ar
    26    26    27   ar
    27    27    28   ar
    28    23     1    1
    29    28    24   ar
    30    22     3   ar
    31     8     4   ar
    32    21     9   ar
    33    20    12   ar
    34    19    15   ar
    35     1    29    1
    36     1    30    1
    37     2    31    1
    38     5    32    1
    39     7    33    1
    40    10    34    1
    41    13    35    1
    42    14    36    1
    43    16    37    1
    44    18    38    1
    45    23    39    1
    46    25    40    1
    47    27    41    1
