@<TRIPOS>MOLECULE
*****
 43 49 0 0 0
SMALL
GASTEIGER

@<TRIPOS>ATOM
      1 SI         -3.5530    3.7596   -1.0826 Si      1  UNL1        0.0000
      2 C          -1.7604    3.2609   -0.9761 C.2     1  UNL1        0.0000
      3 C          -1.6387    1.9651   -0.6313 C.ar    1  UNL1        0.0000
      4 C          -0.4225    1.2343   -0.4538 C.ar    1  UNL1        0.0000
      5 C           0.9372    1.5892   -0.5761 C.ar    1  UNL1        0.0000
      6 C           1.6948    0.4645   -0.2697 C.ar    1  UNL1        0.0000
      7 N           0.8050   -0.5577   -0.0024 N.ar    1  UNL1        0.0000
      8 C          -0.4784   -0.0985   -0.0945 C.ar    1  UNL1        0.0000
      9 C          -1.6956   -0.8646    0.1286 C.ar    1  UNL1        0.0000
     10 N          -1.5301   -2.1642    0.4763 N.ar    1  UNL1        0.0000
     11 C          -2.6410   -2.9104    0.6899 C.ar    1  UNL1        0.0000
     12 C          -3.9149   -2.3466    0.5558 C.ar    1  UNL1        0.0000
     13 C          -5.2473   -2.8208    0.6999 C.ar    1  UNL1        0.0000
     14 C          -6.0708   -1.7552    0.4259 C.ar    1  UNL1        0.0000
     15 O          -5.3399   -0.6537    0.1219 O.2     1  UNL1        0.0000
     16 C          -4.0201   -1.0019    0.1973 C.ar    1  UNL1        0.0000
     17 C          -2.9183   -0.1904   -0.0351 C.ar    1  UNL1        0.0000
     18 C          -2.9353    1.2403   -0.4180 C.ar    1  UNL1        0.0000
     19 C          -4.0254    2.0129   -0.6085 C.2     1  UNL1        0.0000
     20 C           3.1323    0.2765   -0.2669 C.ar    1  UNL1        0.0000
     21 C           4.0010    0.8019   -1.2560 C.ar    1  UNL1        0.0000
     22 C           5.4270    0.6024   -1.2680 C.ar    1  UNL1        0.0000
     23 C           6.1348   -0.1350   -0.2917 C.ar    1  UNL1        0.0000
     24 C           5.2666   -0.6275    0.6739 C.ar    1  UNL1        0.0000
     25 C           5.6277   -1.3617    1.7734 C.ar    1  UNL1        0.0000
     26 N           4.4719   -1.6149    2.4804 N.ar    1  UNL1        0.0000
     27 C           3.3854   -1.0516    1.8418 C.ar    1  UNL1        0.0000
     28 C           3.8486   -0.4421    0.6992 C.ar    1  UNL1        0.0000
     29 H          -3.9301    4.7488   -0.0443 H       1  UNL1        0.0000
     30 H          -3.9658    4.1014   -2.4652 H       1  UNL1        0.0000
     31 H          -0.9635    3.9592   -1.1740 H       1  UNL1        0.0000
     32 H           1.3370    2.5579   -0.8449 H       1  UNL1        0.0000
     33 H           1.0533   -1.5123    0.2211 H       1  UNL1        0.0000
     34 H          -2.4801   -3.9468    0.9646 H       1  UNL1        0.0000
     35 H          -5.5662   -3.8174    0.9703 H       1  UNL1        0.0000
     36 H          -7.1438   -1.6231    0.4045 H       1  UNL1        0.0000
     37 H          -5.0621    1.7324   -0.5178 H       1  UNL1        0.0000
     38 H           3.5696    1.3839   -2.0710 H       1  UNL1        0.0000
     39 H           5.9934    1.0504   -2.0850 H       1  UNL1        0.0000
     40 H           7.2058   -0.2742   -0.3085 H       1  UNL1        0.0000
     41 H           6.5842   -1.7175    2.1309 H       1  UNL1        0.0000
     42 H           4.4274   -2.1243    3.3533 H       1  UNL1        0.0000
     43 H           2.4002   -1.1295    2.2801 H       1  UNL1        0.0000
@<TRIPOS>BOND
     1     1     2    1
     2     2     3    2
     3     3     4   ar
     4     4     5   ar
     5     5     6   ar
     6     6     7   ar
     7     7     8   ar
     8     8     9   ar
     9     9    10   ar
    10    10    11   ar
    11    11    12   ar
    12    12    13   ar
    13    13    14   ar
    14    14    15   ar
    15    15    16   ar
    16    16    17   ar
    17    17    18   ar
    18    18    19    2
    19     6    20    1
    20    20    21   ar
    21    21    22   ar
    22    22    23   ar
    23    23    24   ar
    24    24    25   ar
    25    25    26   ar
    26    26    27   ar
    27    27    28   ar
    28    19     1    1
    29    28    20   ar
    30    18     3   ar
    31    28    24   ar
    32     8     4   ar
    33    17     9   ar
    34    16    12   ar
    35     1    29    1
    36     1    30    1
    37     2    31    1
    38     5    32    1
    39     7    33    1
    40    11    34    1
    41    13    35    1
    42    14    36    1
    43    19    37    1
    44    21    38    1
    45    22    39    1
    46    23    40    1
    47    25    41    1
    48    26    42    1
    49    27    43    1
