@<TRIPOS>MOLECULE
*****
 40 46 0 0 0
SMALL
GASTEIGER

@<TRIPOS>ATOM
      1 SI         -3.4833   -3.5644   -1.0612 Si      1  UNL1        0.0000
      2 C          -1.6578   -3.2244   -1.0008 C.2     1  UNL1        0.0000
      3 C          -1.4138   -1.9609   -0.6027 C.ar    1  UNL1        0.0000
      4 C          -0.1256   -1.3564   -0.4433 C.ar    1  UNL1        0.0000
      5 C           1.1917   -1.8273   -0.6291 C.ar    1  UNL1        0.0000
      6 C           2.0589   -0.7849   -0.3183 C.ar    1  UNL1        0.0000
      7 N           1.2779    0.2941    0.0480 N.ar    1  UNL1        0.0000
      8 C          -0.0406   -0.0458   -0.0258 C.ar    1  UNL1        0.0000
      9 C          -1.1907    0.7564    0.2616 C.ar    1  UNL1        0.0000
     10 S          -1.1505    2.3827    0.7813 S.2     1  UNL1        0.0000
     11 C          -2.8451    2.4415    0.8450 C.ar    1  UNL1        0.0000
     12 C          -3.6576    3.5493    1.2212 C.2     1  UNL1        0.0000
     13 C          -4.9723    3.2510    1.1605 C.2     1  UNL1        0.0000
     14 SI         -5.2673    1.4514    0.5920 Si      1  UNL1        0.0000
     15 C          -3.4055    1.2317    0.4724 C.ar    1  UNL1        0.0000
     16 C          -2.4807    0.2365    0.1292 C.ar    1  UNL1        0.0000
     17 C          -2.6427   -1.1370   -0.3063 C.ar    1  UNL1        0.0000
     18 C          -3.7973   -1.8097   -0.4910 C.2     1  UNL1        0.0000
     19 C           3.4939   -0.7324   -0.3396 C.ar    1  UNL1        0.0000
     20 S           4.4651   -2.1084   -0.8076 S.2     1  UNL1        0.0000
     21 C           5.9706   -1.2822   -0.5823 C.ar    1  UNL1        0.0000
     22 C           5.6940   -0.0294   -0.1724 C.ar    1  UNL1        0.0000
     23 N           6.6022    0.9466    0.1169 N.ar    1  UNL1        0.0000
     24 C           5.7637    1.9974    0.4770 C.ar    1  UNL1        0.0000
     25 C           4.4040    1.6276    0.3944 C.ar    1  UNL1        0.0000
     26 C           4.3548    0.2717   -0.0400 C.ar    1  UNL1        0.0000
     27 H          -3.9797   -3.7993   -2.4382 H       1  UNL1        0.0000
     28 H          -3.9164   -4.5627   -0.0544 H       1  UNL1        0.0000
     29 H          -0.9291   -3.9752   -1.2606 H       1  UNL1        0.0000
     30 H           1.4834   -2.8172   -0.9538 H       1  UNL1        0.0000
     31 H           1.6224    1.1998    0.3287 H       1  UNL1        0.0000
     32 H          -3.2547    4.5093    1.5180 H       1  UNL1        0.0000
     33 H          -5.8025    3.8995    1.3900 H       1  UNL1        0.0000
     34 H          -5.9735    1.4168   -0.7132 H       1  UNL1        0.0000
     35 H          -5.9106    0.6547    1.6666 H       1  UNL1        0.0000
     36 H          -4.8058   -1.4648   -0.3538 H       1  UNL1        0.0000
     37 H           6.9258   -1.7551   -0.7597 H       1  UNL1        0.0000
     38 H           7.6124    0.8919    0.0724 H       1  UNL1        0.0000
     39 H           6.2036    2.9426    0.7690 H       1  UNL1        0.0000
     40 H           3.5785    2.2851    0.6278 H       1  UNL1        0.0000
@<TRIPOS>BOND
     1     1     2    1
     2     2     3    2
     3     3     4   ar
     4     4     5   ar
     5     5     6   ar
     6     6     7   ar
     7     7     8   ar
     8     8     9   ar
     9     9    10   ar
    10    10    11   ar
    11    11    12    1
    12    12    13    2
    13    13    14    1
    14    14    15    1
    15    15    16   ar
    16    16    17   ar
    17    17    18    2
    18     6    19    1
    19    19    20   ar
    20    20    21   ar
    21    21    22   ar
    22    22    23   ar
    23    23    24   ar
    24    24    25   ar
    25    25    26   ar
    26    18     1    1
    27    26    19   ar
    28    17     3   ar
    29    26    22   ar
    30     8     4   ar
    31    16     9   ar
    32    15    11   ar
    33     1    27    1
    34     1    28    1
    35     2    29    1
    36     5    30    1
    37     7    31    1
    38    12    32    1
    39    13    33    1
    40    14    34    1
    41    14    35    1
    42    18    36    1
    43    21    37    1
    44    23    38    1
    45    24    39    1
    46    25    40    1
