@<TRIPOS>MOLECULE
*****
 45 52 0 0 0
SMALL
GASTEIGER

@<TRIPOS>ATOM
      1 SI         -2.2982   -4.0904    0.3797 Si      1  UNL1        0.0000
      2 C          -0.5333   -3.5694    0.1283 C.2     1  UNL1        0.0000
      3 C          -0.4169   -2.2277    0.1694 C.ar    1  UNL1        0.0000
      4 C           0.8106   -1.4944    0.1967 C.ar    1  UNL1        0.0000
      5 C           2.1654   -1.8734    0.0868 C.ar    1  UNL1        0.0000
      6 C           2.9235   -0.7199    0.2219 C.ar    1  UNL1        0.0000
      7 N           2.0558    0.3282    0.4519 N.ar    1  UNL1        0.0000
      8 C           0.7726   -0.1341    0.4174 C.ar    1  UNL1        0.0000
      9 C          -0.4494    0.6012    0.5496 C.ar    1  UNL1        0.0000
     10 S          -0.5402    2.2598    0.8913 S.2     1  UNL1        0.0000
     11 C          -2.2567    2.2738    0.6894 C.ar    1  UNL1        0.0000
     12 C          -3.1219    3.4069    0.8075 C.ar    1  UNL1        0.0000
     13 C          -4.4972    3.3323    0.5303 C.ar    1  UNL1        0.0000
     14 C          -4.8579    2.0714    0.0940 C.ar    1  UNL1        0.0000
     15 C          -6.1178    1.7474   -0.3511 C.ar    1  UNL1        0.0000
     16 N          -6.0773    0.4377   -0.7877 N.ar    1  UNL1        0.0000
     17 C          -4.8046   -0.0763   -0.6329 C.ar    1  UNL1        0.0000
     18 C          -4.0739    0.9109   -0.0380 C.ar    1  UNL1        0.0000
     19 C          -2.6866    0.9894    0.3474 C.ar    1  UNL1        0.0000
     20 C          -1.6909   -0.0194    0.4114 C.ar    1  UNL1        0.0000
     21 C          -1.7146   -1.4728    0.3376 C.ar    1  UNL1        0.0000
     22 C          -2.7619   -2.2926    0.5612 C.2     1  UNL1        0.0000
     23 C           4.3379   -0.5477    0.1844 C.ar    1  UNL1        0.0000
     24 S           5.4480   -1.5022    1.1139 S.2     1  UNL1        0.0000
     25 C           6.8432   -0.6284    0.5499 C.ar    1  UNL1        0.0000
     26 C           6.4118    0.3063   -0.3207 C.ar    1  UNL1        0.0000
     27 C           6.8957    1.3314   -1.1693 C.ar    1  UNL1        0.0000
     28 C           5.7763    1.8866   -1.8262 C.ar    1  UNL1        0.0000
     29 N           4.5911    1.2629   -1.4397 N.ar    1  UNL1        0.0000
     30 C           5.0514    0.3488   -0.5335 C.ar    1  UNL1        0.0000
     31 H          -2.8943   -4.7001   -0.8335 H       1  UNL1        0.0000
     32 H          -2.4975   -4.8549    1.6340 H       1  UNL1        0.0000
     33 H           0.2671   -4.2887    0.0614 H       1  UNL1        0.0000
     34 H           2.5568   -2.8686   -0.0788 H       1  UNL1        0.0000
     35 H           2.3270    1.2846    0.6359 H       1  UNL1        0.0000
     36 H          -2.6979    4.3655    1.1020 H       1  UNL1        0.0000
     37 H          -5.1580    4.1852    0.5988 H       1  UNL1        0.0000
     38 H          -7.0304    2.3225   -0.4308 H       1  UNL1        0.0000
     39 H          -6.8552   -0.0578   -1.2036 H       1  UNL1        0.0000
     40 H          -4.5726   -1.0640   -0.9994 H       1  UNL1        0.0000
     41 H          -3.7628   -2.0186    0.8455 H       1  UNL1        0.0000
     42 H           7.8398   -0.8754    0.8851 H       1  UNL1        0.0000
     43 H           7.9223    1.6408   -1.3141 H       1  UNL1        0.0000
     44 H           5.7334    2.6814   -2.5601 H       1  UNL1        0.0000
     45 H           3.6379    1.4019   -1.7527 H       1  UNL1        0.0000
@<TRIPOS>BOND
     1     1     2    1
     2     2     3    2
     3     3     4   ar
     4     4     5   ar
     5     5     6   ar
     6     6     7   ar
     7     7     8   ar
     8     8     9   ar
     9     9    10   ar
    10    10    11   ar
    11    11    12   ar
    12    12    13   ar
    13    13    14   ar
    14    14    15   ar
    15    15    16   ar
    16    16    17   ar
    17    17    18   ar
    18    18    19   ar
    19    19    20   ar
    20    20    21   ar
    21    21    22    2
    22     6    23    1
    23    23    24   ar
    24    24    25   ar
    25    25    26   ar
    26    26    27   ar
    27    27    28   ar
    28    28    29   ar
    29    29    30   ar
    30    22     1    1
    31    30    23   ar
    32    21     3   ar
    33    30    26   ar
    34     8     4   ar
    35    20     9   ar
    36    19    11   ar
    37    18    14   ar
    38     1    31    1
    39     1    32    1
    40     2    33    1
    41     5    34    1
    42     7    35    1
    43    12    36    1
    44    13    37    1
    45    15    38    1
    46    16    39    1
    47    17    40    1
    48    22    41    1
    49    25    42    1
    50    27    43    1
    51    28    44    1
    52    29    45    1
