@<TRIPOS>MOLECULE
*****
 49 55 0 0 0
SMALL
GASTEIGER

@<TRIPOS>ATOM
      1 SI          1.5532   -4.1970   -1.6701 Si      1  UNL1        0.0000
      2 C           0.1618   -3.0620   -1.1720 C.2     1  UNL1        0.0000
      3 C           0.6143   -1.8863   -0.6809 C.ar    1  UNL1        0.0000
      4 C          -0.2433   -0.7438   -0.2924 C.ar    1  UNL1        0.0000
      5 C          -1.6369   -0.8729   -0.2825 C.ar    1  UNL1        0.0000
      6 C          -2.4829    0.2106   -0.0279 C.ar    1  UNL1        0.0000
      7 C          -3.9339   -0.0485   -0.0209 C.ar    1  UNL1        0.0000
      8 C          -4.5992   -0.3557    1.1761 C.ar    1  UNL1        0.0000
      9 C          -5.9726   -0.6083    1.1831 C.ar    1  UNL1        0.0000
     10 C          -6.6966   -0.5596   -0.0067 C.ar    1  UNL1        0.0000
     11 C          -6.0496   -0.2594   -1.2039 C.ar    1  UNL1        0.0000
     12 C          -4.6762   -0.0069   -1.2115 C.ar    1  UNL1        0.0000
     13 C          -1.9234    1.4936    0.1694 C.ar    1  UNL1        0.0000
     14 C          -2.7630    2.6220    0.3566 C.ar    1  UNL1        0.0000
     15 C          -2.2617    3.9101    0.5038 C.ar    1  UNL1        0.0000
     16 C          -0.8987    4.1051    0.4521 C.ar    1  UNL1        0.0000
     17 C          -0.0499    3.0073    0.2813 C.ar    1  UNL1        0.0000
     18 C          -0.5039    1.6612    0.1686 C.ar    1  UNL1        0.0000
     19 C           0.3613    0.5008    0.0266 C.ar    1  UNL1        0.0000
     20 C           1.8622    0.5294    0.2415 C.ar    1  UNL1        0.0000
     21 N           2.3414    1.6327    0.8643 N.ar    1  UNL1        0.0000
     22 C           3.6558    1.7243    1.1213 C.ar    1  UNL1        0.0000
     23 C           4.5732    0.7415    0.8067 C.ar    1  UNL1        0.0000
     24 C           5.9369    0.9051    1.1044 C.ar    1  UNL1        0.0000
     25 C           6.8339   -0.1028    0.7972 C.ar    1  UNL1        0.0000
     26 C           6.3276   -1.2366    0.2064 C.ar    1  UNL1        0.0000
     27 N           5.0187   -1.4088   -0.0868 N.ar    1  UNL1        0.0000
     28 C           4.1114   -0.4357    0.1948 C.ar    1  UNL1        0.0000
     29 C           2.7223   -0.5474   -0.0822 C.ar    1  UNL1        0.0000
     30 C           2.0871   -1.7715   -0.6404 C.ar    1  UNL1        0.0000
     31 C           2.7213   -2.8574   -1.1353 C.2     1  UNL1        0.0000
     32 H           1.6238   -5.4079   -0.8169 H       1  UNL1        0.0000
     33 H           1.5808   -4.4416   -3.1326 H       1  UNL1        0.0000
     34 H          -0.8543   -3.3781   -1.3373 H       1  UNL1        0.0000
     35 H          -2.1008   -1.8377   -0.4742 H       1  UNL1        0.0000
     36 H          -4.0442   -0.3962    2.1113 H       1  UNL1        0.0000
     37 H          -6.4755   -0.8430    2.1176 H       1  UNL1        0.0000
     38 H          -7.7656   -0.7561   -0.0008 H       1  UNL1        0.0000
     39 H          -6.6129   -0.2213   -2.1326 H       1  UNL1        0.0000
     40 H          -4.1821    0.2282   -2.1522 H       1  UNL1        0.0000
     41 H          -3.8460    2.5093    0.3777 H       1  UNL1        0.0000
     42 H          -2.9366    4.7499    0.6387 H       1  UNL1        0.0000
     43 H          -0.4811    5.1044    0.5379 H       1  UNL1        0.0000
     44 H           1.0061    3.2468    0.2070 H       1  UNL1        0.0000
     45 H           3.9537    2.6485    1.6096 H       1  UNL1        0.0000
     46 H           6.2993    1.8143    1.5784 H       1  UNL1        0.0000
     47 H           7.8910   -0.0082    1.0149 H       1  UNL1        0.0000
     48 H           6.9727   -2.0694   -0.0588 H       1  UNL1        0.0000
     49 H           3.7810   -3.0250   -1.2288 H       1  UNL1        0.0000
@<TRIPOS>BOND
     1     1     2    1
     2     2     3    2
     3     3     4   ar
     4     4     5   ar
     5     5     6   ar
     6     6     7    1
     7     7     8   ar
     8     8     9   ar
     9     9    10   ar
    10    10    11   ar
    11    11    12   ar
    12     6    13   ar
    13    13    14   ar
    14    14    15   ar
    15    15    16   ar
    16    16    17   ar
    17    17    18   ar
    18    18    19   ar
    19    19    20   ar
    20    20    21   ar
    21    21    22   ar
    22    22    23   ar
    23    23    24   ar
    24    24    25   ar
    25    25    26   ar
    26    26    27   ar
    27    27    28   ar
    28    28    29   ar
    29    29    30   ar
    30    30    31    2
    31    31     1    1
    32    30     3   ar
    33    19     4   ar
    34    29    20   ar
    35    12     7   ar
    36    18    13   ar
    37    28    23   ar
    38     1    32    1
    39     1    33    1
    40     2    34    1
    41     5    35    1
    42     8    36    1
    43     9    37    1
    44    10    38    1
    45    11    39    1
    46    12    40    1
    47    14    41    1
    48    15    42    1
    49    16    43    1
    50    17    44    1
    51    22    45    1
    52    24    46    1
    53    25    47    1
    54    26    48    1
    55    31    49    1
