@<TRIPOS>MOLECULE
*****
 41 47 0 0 0
SMALL
GASTEIGER

@<TRIPOS>ATOM
      1 SI         -1.8914   -3.0840    2.7890 Si      1  UNL1        0.0000
      2 C          -0.4362   -2.2900    1.9511 C.2     1  UNL1        0.0000
      3 C          -0.7778   -1.1721    1.2725 C.ar    1  UNL1        0.0000
      4 C           0.1706   -0.3491    0.4748 C.ar    1  UNL1        0.0000
      5 C           1.5538   -0.6899    0.4164 C.ar    1  UNL1        0.0000
      6 C           2.5448   -0.0022   -0.3254 C.ar    1  UNL1        0.0000
      7 C           3.9517   -0.4242   -0.3272 C.ar    1  UNL1        0.0000
      8 C           4.7963   -0.3229   -1.4327 C.ar    1  UNL1        0.0000
      9 C           6.1135   -0.7702   -1.3352 C.ar    1  UNL1        0.0000
     10 C           6.5607   -1.3172   -0.1415 C.ar    1  UNL1        0.0000
     11 C           5.6645   -1.4016    0.9070 C.ar    1  UNL1        0.0000
     12 N           4.3820   -0.9797    0.8379 N.ar    1  UNL1        0.0000
     13 C           2.0598    1.1296   -1.0338 C.ar    1  UNL1        0.0000
     14 N           2.7961    1.9665   -1.7897 N.ar    1  UNL1        0.0000
     15 S           1.7795    3.1182   -2.3863 S.2     1  UNL1        0.0000
     16 N           0.3556    2.6203   -1.7353 N.ar    1  UNL1        0.0000
     17 C           0.5848    1.5245   -0.9874 C.ar    1  UNL1        0.0000
     18 C          -0.3715    0.7701   -0.2220 C.ar    1  UNL1        0.0000
     19 C          -1.8111    1.1289   -0.1373 C.ar    1  UNL1        0.0000
     20 N          -2.1872    2.2174   -0.8406 N.ar    1  UNL1        0.0000
     21 C          -3.4543    2.6596   -0.8110 C.ar    1  UNL1        0.0000
     22 C          -4.4271    2.0222   -0.0403 C.ar    1  UNL1        0.0000
     23 C          -5.8129    2.3681    0.1235 C.ar    1  UNL1        0.0000
     24 C          -6.4757    1.5180    0.9675 C.ar    1  UNL1        0.0000
     25 S          -5.4474    0.3138    1.5688 S.2     1  UNL1        0.0000
     26 C          -4.0573    0.8802    0.6933 C.ar    1  UNL1        0.0000
     27 C          -2.7225    0.3866    0.6445 C.ar    1  UNL1        0.0000
     28 C          -2.2246   -0.8217    1.3526 C.ar    1  UNL1        0.0000
     29 C          -2.9357   -1.7133    2.0774 C.2     1  UNL1        0.0000
     30 H          -1.8040   -3.0256    4.2677 H       1  UNL1        0.0000
     31 H          -2.2258   -4.4091    2.2132 H       1  UNL1        0.0000
     32 H           0.5301   -2.7565    2.0441 H       1  UNL1        0.0000
     33 H           1.9078   -1.5524    0.9820 H       1  UNL1        0.0000
     34 H           4.4469    0.0891   -2.3740 H       1  UNL1        0.0000
     35 H           6.7809   -0.6902   -2.1888 H       1  UNL1        0.0000
     36 H           7.5790   -1.6720   -0.0325 H       1  UNL1        0.0000
     37 H           5.9593   -1.8265    1.8622 H       1  UNL1        0.0000
     38 H          -3.6619    3.5409   -1.4086 H       1  UNL1        0.0000
     39 H          -6.2906    3.2106   -0.3622 H       1  UNL1        0.0000
     40 H          -7.5157    1.5535    1.2625 H       1  UNL1        0.0000
     41 H          -3.9866   -1.7478    2.2916 H       1  UNL1        0.0000
@<TRIPOS>BOND
     1     1     2    1
     2     2     3    2
     3     3     4   ar
     4     4     5   ar
     5     5     6   ar
     6     6     7    1
     7     7     8   ar
     8     8     9   ar
     9     9    10   ar
    10    10    11   ar
    11    11    12   ar
    12     6    13   ar
    13    13    14   ar
    14    14    15   ar
    15    15    16   ar
    16    16    17   ar
    17    17    18   ar
    18    18    19   ar
    19    19    20   ar
    20    20    21   ar
    21    21    22   ar
    22    22    23   ar
    23    23    24   ar
    24    24    25   ar
    25    25    26   ar
    26    26    27   ar
    27    27    28   ar
    28    28    29    2
    29    29     1    1
    30    28     3   ar
    31    18     4   ar
    32    27    19   ar
    33    12     7   ar
    34    17    13   ar
    35    26    22   ar
    36     1    30    1
    37     1    31    1
    38     2    32    1
    39     5    33    1
    40     8    34    1
    41     9    35    1
    42    10    36    1
    43    11    37    1
    44    21    38    1
    45    23    39    1
    46    24    40    1
    47    29    41    1
