@<TRIPOS>MOLECULE
*****
 43 50 0 0 0
SMALL
GASTEIGER

@<TRIPOS>ATOM
      1 SI         -1.7314    3.9406   -0.0615 Si      1  UNL1        0.0000
      2 C          -0.1085    3.0290    0.0010 C.2     1  UNL1        0.0000
      3 C          -0.2744    1.6888   -0.0313 C.ar    1  UNL1        0.0000
      4 C           0.8278    0.7009    0.0737 C.ar    1  UNL1        0.0000
      5 C           2.1843    1.1031   -0.0838 C.ar    1  UNL1        0.0000
      6 C           3.2660    0.2067   -0.1098 C.ar    1  UNL1        0.0000
      7 C           4.6404    0.6500   -0.2766 C.ar    1  UNL1        0.0000
      8 C           5.2421    1.2021   -1.3905 C.ar    1  UNL1        0.0000
      9 C           6.6094    1.5336   -1.1593 C.ar    1  UNL1        0.0000
     10 C           7.0013    1.2340    0.1261 C.ar    1  UNL1        0.0000
     11 S           5.7256    0.5624    1.0464 S.2     1  UNL1        0.0000
     12 C           2.9394   -1.1714   -0.0621 C.ar    1  UNL1        0.0000
     13 N           3.7955   -2.2031   -0.1740 N.ar    1  UNL1        0.0000
     14 S           2.8930   -3.5854   -0.1329 S.2     1  UNL1        0.0000
     15 N           1.3761   -2.9491   -0.0056 N.ar    1  UNL1        0.0000
     16 C           1.4947   -1.6132    0.1028 C.ar    1  UNL1        0.0000
     17 C           0.4349   -0.6585    0.2709 C.ar    1  UNL1        0.0000
     18 C          -0.9839   -1.0405    0.4508 C.ar    1  UNL1        0.0000
     19 C          -1.4085   -2.2221    1.1299 C.ar    1  UNL1        0.0000
     20 N          -0.6671   -3.0116    1.9277 N.ar    1  UNL1        0.0000
     21 S          -1.6215   -4.2625    2.4254 S.2     1  UNL1        0.0000
     22 N          -3.0582   -3.8388    1.7234 N.ar    1  UNL1        0.0000
     23 C          -2.8404   -2.6904    1.0558 C.ar    1  UNL1        0.0000
     24 C          -3.8137   -1.9559    0.3101 C.ar    1  UNL1        0.0000
     25 C          -5.1272   -2.4378    0.1458 C.ar    1  UNL1        0.0000
     26 C          -6.0065   -1.6855   -0.6017 C.ar    1  UNL1        0.0000
     27 N          -5.6662   -0.5250   -1.1896 N.ar    1  UNL1        0.0000
     28 C          -4.3928   -0.0867   -1.0022 C.ar    1  UNL1        0.0000
     29 C          -3.3973   -0.7150   -0.2334 C.ar    1  UNL1        0.0000
     30 C          -2.0555   -0.2106   -0.0187 C.ar    1  UNL1        0.0000
     31 C          -1.6911    1.2428   -0.1242 C.ar    1  UNL1        0.0000
     32 C          -2.5686    2.2706   -0.0756 C.2     1  UNL1        0.0000
     33 H          -1.9181    4.6755   -1.3346 H       1  UNL1        0.0000
     34 H          -2.0038    4.7001    1.1810 H       1  UNL1        0.0000
     35 H           0.8043    3.5932    0.0960 H       1  UNL1        0.0000
     36 H           2.4213    2.1590   -0.2074 H       1  UNL1        0.0000
     37 H           4.7302    1.3519   -2.3335 H       1  UNL1        0.0000
     38 H           7.2715    1.9669   -1.8988 H       1  UNL1        0.0000
     39 H           7.9756    1.3764    0.5730 H       1  UNL1        0.0000
     40 H          -5.4461   -3.3784    0.5836 H       1  UNL1        0.0000
     41 H          -7.0305   -2.0097   -0.7623 H       1  UNL1        0.0000
     42 H          -4.1806    0.8178   -1.5665 H       1  UNL1        0.0000
     43 H          -3.6415    2.2456    0.0166 H       1  UNL1        0.0000
@<TRIPOS>BOND
     1     1     2    1
     2     2     3    2
     3     3     4   ar
     4     4     5   ar
     5     5     6   ar
     6     6     7    1
     7     7     8   ar
     8     8     9   ar
     9     9    10   ar
    10    10    11   ar
    11     6    12   ar
    12    12    13   ar
    13    13    14   ar
    14    14    15   ar
    15    15    16   ar
    16    16    17   ar
    17    17    18   ar
    18    18    19   ar
    19    19    20   ar
    20    20    21   ar
    21    21    22   ar
    22    22    23   ar
    23    23    24   ar
    24    24    25   ar
    25    25    26   ar
    26    26    27   ar
    27    27    28   ar
    28    28    29   ar
    29    29    30   ar
    30    30    31   ar
    31    31    32    2
    32    32     1    1
    33    31     3   ar
    34    17     4   ar
    35    30    18   ar
    36    11     7   ar
    37    16    12   ar
    38    23    19   ar
    39    29    24   ar
    40     1    33    1
    41     1    34    1
    42     2    35    1
    43     5    36    1
    44     8    37    1
    45     9    38    1
    46    10    39    1
    47    25    40    1
    48    26    41    1
    49    28    42    1
    50    32    43    1
