@<TRIPOS>MOLECULE
*****
 42 48 0 0 0
SMALL
GASTEIGER

@<TRIPOS>ATOM
      1 SI          2.0835    1.4698    0.1942 Si      1  UNL1        0.0000
      2 C           3.7245    0.5413   -0.0091 C.2     1  UNL1        0.0000
      3 C           3.5219   -0.7764   -0.2295 C.2     1  UNL1        0.0000
      4 C           2.1106   -1.1647   -0.2577 C.ar    1  UNL1        0.0000
      5 C           1.1183   -0.1544   -0.0576 C.ar    1  UNL1        0.0000
      6 C          -0.3077   -0.3747   -0.0564 C.ar    1  UNL1        0.0000
      7 C          -1.2377    0.6618    0.1467 C.ar    1  UNL1        0.0000
      8 C          -2.6340    0.4156    0.1429 C.ar    1  UNL1        0.0000
      9 C          -3.6666    1.3654    0.3341 C.ar    1  UNL1        0.0000
     10 C          -3.5442    2.7150    0.5621 C.ar    1  UNL1        0.0000
     11 N          -4.8205    3.2268    0.6850 N.ar    1  UNL1        0.0000
     12 C          -5.7545    2.2230    0.5387 C.ar    1  UNL1        0.0000
     13 C          -5.0588    1.0626    0.3206 C.ar    1  UNL1        0.0000
     14 C          -5.6154   -0.1900    0.1212 C.ar    1  UNL1        0.0000
     15 C          -4.5983   -1.1566   -0.0725 C.ar    1  UNL1        0.0000
     16 C          -3.1742   -0.8896   -0.0659 C.ar    1  UNL1        0.0000
     17 C          -2.2549   -1.9235   -0.2684 C.ar    1  UNL1        0.0000
     18 C          -0.8504   -1.6894   -0.2668 C.ar    1  UNL1        0.0000
     19 C           0.1502   -2.6947   -0.4664 C.ar    1  UNL1        0.0000
     20 C          -0.1151   -4.0278   -0.6875 C.ar    1  UNL1        0.0000
     21 S           1.3214   -4.9494   -0.8846 S.2     1  UNL1        0.0000
     22 C           2.3199   -3.5694   -0.6754 C.ar    1  UNL1        0.0000
     23 C           1.5751   -2.4344   -0.4607 C.ar    1  UNL1        0.0000
     24 C           5.0185    1.1382    0.0583 C.ar    1  UNL1        0.0000
     25 C           6.2764    0.5547   -0.0768 C.ar    1  UNL1        0.0000
     26 N           7.3778    1.3816    0.0358 N.ar    1  UNL1        0.0000
     27 C           6.9680    2.6065    0.2584 C.ar    1  UNL1        0.0000
     28 S           5.2776    2.8313    0.3434 S.2     1  UNL1        0.0000
     29 H           1.8948    2.0148    1.5638 H       1  UNL1        0.0000
     30 H           1.8281    2.4372   -0.9045 H       1  UNL1        0.0000
     31 H           4.3004   -1.5116   -0.3764 H       1  UNL1        0.0000
     32 H          -0.9069    1.6823    0.3125 H       1  UNL1        0.0000
     33 H          -2.6862    3.3665    0.6502 H       1  UNL1        0.0000
     34 H          -5.0394    4.1993    0.8578 H       1  UNL1        0.0000
     35 H          -6.8123    2.4381    0.6048 H       1  UNL1        0.0000
     36 H          -6.6702   -0.4218    0.1105 H       1  UNL1        0.0000
     37 H          -4.9260   -2.1847   -0.2397 H       1  UNL1        0.0000
     38 H          -2.6303   -2.9303   -0.4306 H       1  UNL1        0.0000
     39 H          -1.0659   -4.5366   -0.7487 H       1  UNL1        0.0000
     40 H           3.3931   -3.6851   -0.7245 H       1  UNL1        0.0000
     41 H           6.4522   -0.4980   -0.2633 H       1  UNL1        0.0000
     42 H           7.6573    3.4315    0.3819 H       1  UNL1        0.0000
@<TRIPOS>BOND
     1     1     2    1
     2     2     3    2
     3     3     4    1
     4     4     5   ar
     5     5     6   ar
     6     6     7   ar
     7     7     8   ar
     8     8     9   ar
     9     9    10   ar
    10    10    11   ar
    11    11    12   ar
    12    12    13   ar
    13    13    14   ar
    14    14    15   ar
    15    15    16   ar
    16    16    17   ar
    17    17    18   ar
    18    18    19   ar
    19    19    20   ar
    20    20    21   ar
    21    21    22   ar
    22    22    23   ar
    23     2    24    1
    24    24    25   ar
    25    25    26   ar
    26    26    27   ar
    27    27    28   ar
    28     5     1    1
    29    18     6   ar
    30    23    19   ar
    31    28    24   ar
    32    23     4   ar
    33    16     8   ar
    34    13     9   ar
    35     1    29    1
    36     1    30    1
    37     3    31    1
    38     7    32    1
    39    10    33    1
    40    11    34    1
    41    12    35    1
    42    14    36    1
    43    15    37    1
    44    17    38    1
    45    20    39    1
    46    22    40    1
    47    25    41    1
    48    27    42    1
