@<TRIPOS>MOLECULE
*****
 49 56 0 0 0
SMALL
GASTEIGER

@<TRIPOS>ATOM
      1 SI          0.5694    4.4164    1.8181 Si      1  UNL1        0.0000
      2 C           1.6213    3.0097    1.2092 C.2     1  UNL1        0.0000
      3 C           0.8745    1.9927    0.7267 C.ar    1  UNL1        0.0000
      4 C           1.4158    0.7311    0.1668 C.ar    1  UNL1        0.0000
      5 C           2.8084    0.6234   -0.1873 C.ar    1  UNL1        0.0000
      6 C           3.3777   -0.4518   -0.9095 C.ar    1  UNL1        0.0000
      7 C           4.7907   -0.5652   -1.2586 C.ar    1  UNL1        0.0000
      8 N           5.4905   -1.6836   -1.2331 N.ar    1  UNL1        0.0000
      9 C           6.7923   -1.4437   -1.6241 C.ar    1  UNL1        0.0000
     10 C           7.0817   -0.1396   -1.9543 C.ar    1  UNL1        0.0000
     11 S           5.6801    0.8251   -1.7694 S.2     1  UNL1        0.0000
     12 C           2.3995   -1.3733   -1.3154 C.ar    1  UNL1        0.0000
     13 C           2.6521   -2.4437   -2.1455 C.ar    1  UNL1        0.0000
     14 S           1.2203   -3.2787   -2.5717 S.2     1  UNL1        0.0000
     15 C           0.2488   -2.2080   -1.6517 C.ar    1  UNL1        0.0000
     16 C           0.9925   -1.2826   -0.9494 C.ar    1  UNL1        0.0000
     17 C           0.4472   -0.2899   -0.0933 C.ar    1  UNL1        0.0000
     18 C          -0.9765   -0.1869    0.3517 C.ar    1  UNL1        0.0000
     19 C          -1.7901   -1.3267    0.6648 C.ar    1  UNL1        0.0000
     20 C          -1.2440   -2.5857    1.0278 C.ar    1  UNL1        0.0000
     21 C          -2.0355   -3.7050    1.2856 C.ar    1  UNL1        0.0000
     22 C          -3.4115   -3.5985    1.2068 C.ar    1  UNL1        0.0000
     23 C          -3.9875   -2.3662    0.9028 C.ar    1  UNL1        0.0000
     24 C          -3.2040   -1.2109    0.6562 C.ar    1  UNL1        0.0000
     25 C          -3.7650    0.0568    0.4013 C.ar    1  UNL1        0.0000
     26 C          -5.2138    0.3309    0.2213 C.2     1  UNL1        0.0000
     27 C          -5.5255    1.6189    0.0093 C.2     1  UNL1        0.0000
     28 SI         -4.0346    2.7232    0.0210 Si      1  UNL1        0.0000
     29 C          -2.9391    1.2172    0.3457 C.ar    1  UNL1        0.0000
     30 C          -1.5484    1.1114    0.4588 C.ar    1  UNL1        0.0000
     31 C          -0.5963    2.2147    0.7890 C.ar    1  UNL1        0.0000
     32 C          -0.9240    3.3908    1.3686 C.2     1  UNL1        0.0000
     33 H           0.6924    4.6315    3.2794 H       1  UNL1        0.0000
     34 H           0.6964    5.6293    0.9751 H       1  UNL1        0.0000
     35 H           2.6931    3.0805    1.2849 H       1  UNL1        0.0000
     36 H           3.4756    1.4341    0.0997 H       1  UNL1        0.0000
     37 H           7.4966   -2.2663   -1.6515 H       1  UNL1        0.0000
     38 H           8.0208    0.2790   -2.2859 H       1  UNL1        0.0000
     39 H           3.5934   -2.7767   -2.5616 H       1  UNL1        0.0000
     40 H          -0.8231   -2.3414   -1.6873 H       1  UNL1        0.0000
     41 H          -0.1665   -2.7051    1.1336 H       1  UNL1        0.0000
     42 H          -1.5706   -4.6510    1.5499 H       1  UNL1        0.0000
     43 H          -4.0409   -4.4622    1.4030 H       1  UNL1        0.0000
     44 H          -5.0727   -2.3170    0.8876 H       1  UNL1        0.0000
     45 H          -5.9574   -0.4531    0.2407 H       1  UNL1        0.0000
     46 H          -6.5168    2.0135   -0.1524 H       1  UNL1        0.0000
     47 H          -3.7943    3.3436   -1.3058 H       1  UNL1        0.0000
     48 H          -4.1059    3.6796    1.1554 H       1  UNL1        0.0000
     49 H          -1.8872    3.7593    1.6670 H       1  UNL1        0.0000
@<TRIPOS>BOND
     1     1     2    1
     2     2     3    2
     3     3     4   ar
     4     4     5   ar
     5     5     6   ar
     6     6     7    1
     7     7     8   ar
     8     8     9   ar
     9     9    10   ar
    10    10    11   ar
    11     6    12   ar
    12    12    13   ar
    13    13    14   ar
    14    14    15   ar
    15    15    16   ar
    16    16    17   ar
    17    17    18   ar
    18    18    19   ar
    19    19    20   ar
    20    20    21   ar
    21    21    22   ar
    22    22    23   ar
    23    23    24   ar
    24    24    25   ar
    25    25    26    1
    26    26    27    2
    27    27    28    1
    28    28    29    1
    29    29    30   ar
    30    30    31   ar
    31    31    32    2
    32    32     1    1
    33    31     3   ar
    34    17     4   ar
    35    30    18   ar
    36    11     7   ar
    37    16    12   ar
    38    24    19   ar
    39    29    25   ar
    40     1    33    1
    41     1    34    1
    42     2    35    1
    43     5    36    1
    44     9    37    1
    45    10    38    1
    46    13    39    1
    47    15    40    1
    48    20    41    1
    49    21    42    1
    50    22    43    1
    51    23    44    1
    52    26    45    1
    53    27    46    1
    54    28    47    1
    55    28    48    1
    56    32    49    1
