@<TRIPOS>MOLECULE
*****
 47 54 0 0 0
SMALL
GASTEIGER

@<TRIPOS>ATOM
      1 SI         -1.4708   -4.3398   -1.5718 Si      1  UNL1        0.0000
      2 C           0.0879   -3.3903   -1.1848 C.2     1  UNL1        0.0000
      3 C          -0.1791   -2.1341   -0.7651 C.ar    1  UNL1        0.0000
      4 C           0.8373   -1.0783   -0.5049 C.ar    1  UNL1        0.0000
      5 C           2.2195   -1.3008   -0.8389 C.ar    1  UNL1        0.0000
      6 C           3.2084   -0.2934   -0.8698 C.ar    1  UNL1        0.0000
      7 C           4.5925   -0.5723   -1.2119 C.ar    1  UNL1        0.0000
      8 N           4.9789   -1.2057   -2.3013 N.ar    1  UNL1        0.0000
      9 C           6.3518   -1.3515   -2.2990 C.ar    1  UNL1        0.0000
     10 C           7.0008   -0.8558   -1.1902 C.ar    1  UNL1        0.0000
     11 S           5.8572   -0.1864   -0.1047 S.2     1  UNL1        0.0000
     12 C           2.6617    0.9820   -0.6692 C.ar    1  UNL1        0.0000
     13 C           3.3551    2.1566   -0.8608 C.ar    1  UNL1        0.0000
     14 S           2.3530    3.5313   -0.6619 S.2     1  UNL1        0.0000
     15 C           0.9747    2.5607   -0.3522 C.ar    1  UNL1        0.0000
     16 C           1.2730    1.2152   -0.3007 C.ar    1  UNL1        0.0000
     17 C           0.3239    0.1883   -0.0624 C.ar    1  UNL1        0.0000
     18 C          -1.0765    0.3653    0.4251 C.ar    1  UNL1        0.0000
     19 C          -1.4679    1.3330    1.4089 C.ar    1  UNL1        0.0000
     20 C          -0.5697    2.0224    2.2636 C.ar    1  UNL1        0.0000
     21 C          -0.9913    2.9933    3.1790 C.ar    1  UNL1        0.0000
     22 C          -2.3388    3.2982    3.2973 C.ar    1  UNL1        0.0000
     23 C          -3.2679    2.6048    2.5287 C.ar    1  UNL1        0.0000
     24 C          -2.8470    1.6122    1.6155 C.ar    1  UNL1        0.0000
     25 C          -3.8287    0.8604    0.9238 C.ar    1  UNL1        0.0000
     26 C          -5.2548    0.8515    0.8635 C.ar    1  UNL1        0.0000
     27 C          -5.6068   -0.2066    0.0645 C.ar    1  UNL1        0.0000
     28 O          -4.5012   -0.8571   -0.3667 O.2     1  UNL1        0.0000
     29 C          -3.4075   -0.2079    0.1375 C.ar    1  UNL1        0.0000
     30 C          -2.0616   -0.5319   -0.0766 C.ar    1  UNL1        0.0000
     31 C          -1.6291   -1.8156   -0.6747 C.ar    1  UNL1        0.0000
     32 C          -2.4318   -2.8297   -1.0640 C.2     1  UNL1        0.0000
     33 H          -1.6734   -5.4861   -0.6529 H       1  UNL1        0.0000
     34 H          -1.6002   -4.6481   -3.0164 H       1  UNL1        0.0000
     35 H           1.0435   -3.8551   -1.3585 H       1  UNL1        0.0000
     36 H           2.5422   -2.3008   -1.1276 H       1  UNL1        0.0000
     37 H           6.8333   -1.8378   -3.1388 H       1  UNL1        0.0000
     38 H           8.0580   -0.8630   -0.9688 H       1  UNL1        0.0000
     39 H           4.3869    2.3058   -1.1474 H       1  UNL1        0.0000
     40 H           0.0213    3.0549   -0.2274 H       1  UNL1        0.0000
     41 H           0.4938    1.7912    2.2459 H       1  UNL1        0.0000
     42 H          -0.2597    3.5022    3.8020 H       1  UNL1        0.0000
     43 H          -2.6691    4.0526    4.0062 H       1  UNL1        0.0000
     44 H          -4.3228    2.8284    2.6660 H       1  UNL1        0.0000
     45 H          -5.9407    1.5244    1.3570 H       1  UNL1        0.0000
     46 H          -6.5508   -0.6152   -0.2680 H       1  UNL1        0.0000
     47 H          -3.5077   -2.8710   -1.0555 H       1  UNL1        0.0000
@<TRIPOS>BOND
     1     1     2    1
     2     2     3    2
     3     3     4   ar
     4     4     5   ar
     5     5     6   ar
     6     6     7    1
     7     7     8   ar
     8     8     9   ar
     9     9    10   ar
    10    10    11   ar
    11     6    12   ar
    12    12    13   ar
    13    13    14   ar
    14    14    15   ar
    15    15    16   ar
    16    16    17   ar
    17    17    18   ar
    18    18    19   ar
    19    19    20   ar
    20    20    21   ar
    21    21    22   ar
    22    22    23   ar
    23    23    24   ar
    24    24    25   ar
    25    25    26   ar
    26    26    27   ar
    27    27    28   ar
    28    28    29   ar
    29    29    30   ar
    30    30    31   ar
    31    31    32    2
    32    32     1    1
    33    31     3   ar
    34    17     4   ar
    35    30    18   ar
    36    11     7   ar
    37    16    12   ar
    38    24    19   ar
    39    29    25   ar
    40     1    33    1
    41     1    34    1
    42     2    35    1
    43     5    36    1
    44     9    37    1
    45    10    38    1
    46    13    39    1
    47    15    40    1
    48    20    41    1
    49    21    42    1
    50    22    43    1
    51    23    44    1
    52    26    45    1
    53    27    46    1
    54    32    47    1
