@<TRIPOS>MOLECULE
*****
 46 52 0 0 0
SMALL
GASTEIGER

@<TRIPOS>ATOM
      1 SI         -1.4224    4.4579   -0.6284 Si      1  UNL1        0.0000
      2 C           0.1197    3.4200   -0.4648 C.2     1  UNL1        0.0000
      3 C          -0.1738    2.1150   -0.2731 C.ar    1  UNL1        0.0000
      4 C           0.8114    1.0401   -0.0171 C.ar    1  UNL1        0.0000
      5 C           2.1636    1.3397    0.2572 C.ar    1  UNL1        0.0000
      6 C           3.0576    0.3576    0.6936 C.ar    1  UNL1        0.0000
      7 C           2.5731   -0.9322    0.8864 C.ar    1  UNL1        0.0000
      8 C           1.2362   -1.2397    0.6077 C.ar    1  UNL1        0.0000
      9 C           0.3379   -0.2942    0.0726 C.ar    1  UNL1        0.0000
     10 C          -1.0959   -0.6484   -0.2587 C.ar    1  UNL1        0.0000
     11 C          -1.5312   -1.9767   -0.6061 C.ar    1  UNL1        0.0000
     12 C          -0.6809   -3.0331   -1.0277 C.ar    1  UNL1        0.0000
     13 C          -1.1486   -4.3221   -1.3115 C.ar    1  UNL1        0.0000
     14 C          -2.5005   -4.6081   -1.2108 C.ar    1  UNL1        0.0000
     15 C          -3.3879   -3.5950   -0.8667 C.ar    1  UNL1        0.0000
     16 C          -2.9198   -2.2889   -0.5955 C.ar    1  UNL1        0.0000
     17 C          -3.8723   -1.2725   -0.3402 C.ar    1  UNL1        0.0000
     18 C          -5.2953   -1.2059   -0.2433 C.ar    1  UNL1        0.0000
     19 C          -5.6143    0.1141   -0.0513 C.ar    1  UNL1        0.0000
     20 O          -4.4915    0.8687   -0.0295 O.2     1  UNL1        0.0000
     21 C          -3.4191    0.0344   -0.1949 C.ar    1  UNL1        0.0000
     22 C          -2.0657    0.3971   -0.2105 C.ar    1  UNL1        0.0000
     23 C          -1.6223    1.8066   -0.2684 C.ar    1  UNL1        0.0000
     24 C          -2.4085    2.8931   -0.4312 C.2     1  UNL1        0.0000
     25 C           4.4556    0.6734    0.9877 C.ar    1  UNL1        0.0000
     26 C           5.6075   -0.0709    0.7884 C.ar    1  UNL1        0.0000
     27 C           6.7101    0.6822    1.2585 C.ar    1  UNL1        0.0000
     28 C           6.2130    1.8667    1.7476 C.ar    1  UNL1        0.0000
     29 N           4.8527    1.8513    1.5850 N.ar    1  UNL1        0.0000
     30 H          -1.5542    5.0599   -1.9771 H       1  UNL1        0.0000
     31 H          -1.5871    5.3952    0.5090 H       1  UNL1        0.0000
     32 H           1.0852    3.8944   -0.5027 H       1  UNL1        0.0000
     33 H           2.5230    2.3574    0.1442 H       1  UNL1        0.0000
     34 H           3.2205   -1.7107    1.2838 H       1  UNL1        0.0000
     35 H           0.9043   -2.2446    0.8577 H       1  UNL1        0.0000
     36 H           0.3794   -2.8552   -1.1935 H       1  UNL1        0.0000
     37 H          -0.4497   -5.0940   -1.6244 H       1  UNL1        0.0000
     38 H          -2.8677   -5.6070   -1.4297 H       1  UNL1        0.0000
     39 H          -4.4491   -3.8281   -0.8338 H       1  UNL1        0.0000
     40 H          -6.0010   -2.0202   -0.3180 H       1  UNL1        0.0000
     41 H          -6.5437    0.6520    0.0730 H       1  UNL1        0.0000
     42 H          -3.4817    2.9348   -0.5083 H       1  UNL1        0.0000
     43 H           5.6502   -1.0545    0.3382 H       1  UNL1        0.0000
     44 H           7.7517    0.3887    1.2438 H       1  UNL1        0.0000
     45 H           6.7066    2.7157    2.2008 H       1  UNL1        0.0000
     46 H           4.2248    2.5858    1.8821 H       1  UNL1        0.0000
@<TRIPOS>BOND
     1     1     2    1
     2     2     3    2
     3     3     4   ar
     4     4     5   ar
     5     5     6   ar
     6     6     7   ar
     7     7     8   ar
     8     8     9   ar
     9     9    10   ar
    10    10    11   ar
    11    11    12   ar
    12    12    13   ar
    13    13    14   ar
    14    14    15   ar
    15    15    16   ar
    16    16    17   ar
    17    17    18   ar
    18    18    19   ar
    19    19    20   ar
    20    20    21   ar
    21    21    22   ar
    22    22    23   ar
    23    23    24    2
    24     6    25    1
    25    25    26   ar
    26    26    27   ar
    27    27    28   ar
    28    28    29   ar
    29    24     1    1
    30    29    25   ar
    31    23     3   ar
    32     9     4   ar
    33    22    10   ar
    34    16    11   ar
    35    21    17   ar
    36     1    30    1
    37     1    31    1
    38     2    32    1
    39     5    33    1
    40     7    34    1
    41     8    35    1
    42    12    36    1
    43    13    37    1
    44    14    38    1
    45    15    39    1
    46    18    40    1
    47    19    41    1
    48    24    42    1
    49    26    43    1
    50    27    44    1
    51    28    45    1
    52    29    46    1
