@<TRIPOS>MOLECULE
*****
 39 44 0 0 0
SMALL
GASTEIGER

@<TRIPOS>ATOM
      1 SI          1.9058    3.6488    0.0328 Si      1  UNL1        0.0000
      2 C           0.3050    2.7132    0.1390 C.2     1  UNL1        0.0000
      3 C           0.4946    1.3754    0.1142 C.ar    1  UNL1        0.0000
      4 C          -0.5931    0.3666    0.0822 C.ar    1  UNL1        0.0000
      5 C          -1.9513    0.7445    0.1849 C.ar    1  UNL1        0.0000
      6 C          -3.0063   -0.1828    0.1258 C.ar    1  UNL1        0.0000
      7 C          -2.6486   -1.5248   -0.0408 C.ar    1  UNL1        0.0000
      8 C          -1.3075   -1.9224   -0.1356 C.ar    1  UNL1        0.0000
      9 C          -0.2448   -0.9989   -0.0744 C.ar    1  UNL1        0.0000
     10 C           1.1911   -1.4273   -0.1321 C.ar    1  UNL1        0.0000
     11 C           1.5755   -2.7670   -0.2720 C.ar    1  UNL1        0.0000
     12 N           2.8311   -3.2699   -0.2685 N.ar    1  UNL1        0.0000
     13 C           3.8015   -2.3561   -0.0655 C.ar    1  UNL1        0.0000
     14 C           5.1935   -2.5787    0.0413 C.ar    1  UNL1        0.0000
     15 C           5.7820   -1.3614    0.2864 C.ar    1  UNL1        0.0000
     16 N           4.7851   -0.4203    0.3272 N.ar    1  UNL1        0.0000
     17 C           3.5558   -0.9907    0.0766 C.ar    1  UNL1        0.0000
     18 C           2.2432   -0.4842   -0.0103 C.ar    1  UNL1        0.0000
     19 C           1.9176    0.9575    0.0361 C.ar    1  UNL1        0.0000
     20 C           2.7766    1.9958   -0.0648 C.2     1  UNL1        0.0000
     21 C          -4.4201    0.2375    0.2328 C.ar    1  UNL1        0.0000
     22 N          -4.6753    1.5423    0.3863 N.ar    1  UNL1        0.0000
     23 C          -5.9664    1.8517    0.4760 C.ar    1  UNL1        0.0000
     24 N          -6.9833    0.9967    0.4264 N.ar    1  UNL1        0.0000
     25 C          -6.6105   -0.2700    0.2718 C.ar    1  UNL1        0.0000
     26 N          -5.3599   -0.7131    0.1693 N.ar    1  UNL1        0.0000
     27 H           2.2371    4.3760    1.2814 H       1  UNL1        0.0000
     28 H           2.0414    4.4271   -1.2212 H       1  UNL1        0.0000
     29 H          -0.6232    3.2589    0.1653 H       1  UNL1        0.0000
     30 H          -2.2066    1.7935    0.3154 H       1  UNL1        0.0000
     31 H          -3.4196   -2.2930   -0.0942 H       1  UNL1        0.0000
     32 H          -1.1340   -2.9882   -0.2514 H       1  UNL1        0.0000
     33 H           0.8401   -3.5553   -0.3991 H       1  UNL1        0.0000
     34 H           5.6963   -3.5325   -0.0353 H       1  UNL1        0.0000
     35 H           6.8149   -1.0856    0.4518 H       1  UNL1        0.0000
     36 H           4.9369    0.5486    0.5584 H       1  UNL1        0.0000
     37 H           3.8375    2.0001   -0.2216 H       1  UNL1        0.0000
     38 H          -6.2122    2.9008    0.6015 H       1  UNL1        0.0000
     39 H          -7.3998   -1.0126    0.2247 H       1  UNL1        0.0000
@<TRIPOS>BOND
     1     1     2    1
     2     2     3    2
     3     3     4   ar
     4     4     5   ar
     5     5     6   ar
     6     6     7   ar
     7     7     8   ar
     8     8     9   ar
     9     9    10   ar
    10    10    11   ar
    11    11    12   ar
    12    12    13   ar
    13    13    14   ar
    14    14    15   ar
    15    15    16   ar
    16    16    17   ar
    17    17    18   ar
    18    18    19   ar
    19    19    20    2
    20     6    21    1
    21    21    22   ar
    22    22    23   ar
    23    23    24   ar
    24    24    25   ar
    25    25    26   ar
    26    20     1    1
    27    26    21   ar
    28    19     3   ar
    29     9     4   ar
    30    18    10   ar
    31    17    13   ar
    32     1    27    1
    33     1    28    1
    34     2    29    1
    35     5    30    1
    36     7    31    1
    37     8    32    1
    38    11    33    1
    39    14    34    1
    40    15    35    1
    41    16    36    1
    42    20    37    1
    43    23    38    1
    44    25    39    1
