@<TRIPOS>MOLECULE
*****
 40 45 0 0 0
SMALL
GASTEIGER

@<TRIPOS>ATOM
      1 SI          1.4370    1.9973    3.3560 Si      1  UNL1        0.0000
      2 C          -0.0954    1.5144    2.4185 C.2     1  UNL1        0.0000
      3 C           0.1960    0.8386    1.2859 C.ar    1  UNL1        0.0000
      4 C          -0.8079    0.1745    0.4252 C.ar    1  UNL1        0.0000
      5 C          -2.1965    0.3419    0.6124 C.ar    1  UNL1        0.0000
      6 C          -3.1538   -0.3352   -0.1681 C.ar    1  UNL1        0.0000
      7 C          -2.6643   -1.1983   -1.1579 C.ar    1  UNL1        0.0000
      8 C          -1.2901   -1.3655   -1.3655 C.ar    1  UNL1        0.0000
      9 C          -0.3332   -0.6829   -0.5904 C.ar    1  UNL1        0.0000
     10 C           1.1240   -0.8217   -0.8717 C.ar    1  UNL1        0.0000
     11 N           1.4267   -1.6706   -1.8909 N.ar    1  UNL1        0.0000
     12 C           2.7101   -1.7537   -2.2867 C.ar    1  UNL1        0.0000
     13 C           3.7405   -0.9838   -1.7672 C.ar    1  UNL1        0.0000
     14 C           5.0389   -1.0781   -2.2895 C.ar    1  UNL1        0.0000
     15 C           6.0172   -0.2453   -1.7861 C.ar    1  UNL1        0.0000
     16 N           5.7829    0.6690   -0.8316 N.ar    1  UNL1        0.0000
     17 C           4.5170    0.7307   -0.3415 C.ar    1  UNL1        0.0000
     18 C           3.4378   -0.0910   -0.7196 C.ar    1  UNL1        0.0000
     19 C           2.1073   -0.0702   -0.1896 C.ar    1  UNL1        0.0000
     20 C           1.6484    0.6744    1.0171 C.ar    1  UNL1        0.0000
     21 C           2.4252    1.1304    2.0248 C.2     1  UNL1        0.0000
     22 C          -4.6049   -0.1475    0.0483 C.ar    1  UNL1        0.0000
     23 N          -5.4469   -0.8256   -0.7403 N.ar    1  UNL1        0.0000
     24 C          -6.7371   -0.6124   -0.4946 C.ar    1  UNL1        0.0000
     25 N          -7.2349    0.1922    0.4394 N.ar    1  UNL1        0.0000
     26 C          -6.3067    0.8126    1.1612 C.ar    1  UNL1        0.0000
     27 N          -4.9892    0.6890    1.0200 N.ar    1  UNL1        0.0000
     28 H           1.6681    3.4612    3.3615 H       1  UNL1        0.0000
     29 H           1.5435    1.3172    4.6685 H       1  UNL1        0.0000
     30 H          -1.0632    1.7176    2.8462 H       1  UNL1        0.0000
     31 H          -2.5538    1.0159    1.3877 H       1  UNL1        0.0000
     32 H          -3.3534   -1.7523   -1.7939 H       1  UNL1        0.0000
     33 H          -0.9692   -2.0374   -2.1608 H       1  UNL1        0.0000
     34 H           2.8820   -2.4633   -3.0924 H       1  UNL1        0.0000
     35 H           5.2844   -1.7752   -3.0842 H       1  UNL1        0.0000
     36 H           7.0363   -0.2812   -2.1597 H       1  UNL1        0.0000
     37 H           4.3949    1.5406    0.3684 H       1  UNL1        0.0000
     38 H           3.4874    1.0365    2.1662 H       1  UNL1        0.0000
     39 H          -7.4494   -1.1456   -1.1150 H       1  UNL1        0.0000
     40 H          -6.6561    1.4830    1.9391 H       1  UNL1        0.0000
@<TRIPOS>BOND
     1     1     2    1
     2     2     3    2
     3     3     4   ar
     4     4     5   ar
     5     5     6   ar
     6     6     7   ar
     7     7     8   ar
     8     8     9   ar
     9     9    10   ar
    10    10    11   ar
    11    11    12   ar
    12    12    13   ar
    13    13    14   ar
    14    14    15   ar
    15    15    16   ar
    16    16    17   ar
    17    17    18   ar
    18    18    19   ar
    19    19    20   ar
    20    20    21    2
    21     6    22    1
    22    22    23   ar
    23    23    24   ar
    24    24    25   ar
    25    25    26   ar
    26    26    27   ar
    27    21     1    1
    28    27    22   ar
    29    20     3   ar
    30     9     4   ar
    31    19    10   ar
    32    18    13   ar
    33     1    28    1
    34     1    29    1
    35     2    30    1
    36     5    31    1
    37     7    32    1
    38     8    33    1
    39    12    34    1
    40    14    35    1
    41    15    36    1
    42    17    37    1
    43    21    38    1
    44    24    39    1
    45    26    40    1
