@<TRIPOS>MOLECULE
*****
 47 54 0 0 0
SMALL
GASTEIGER

@<TRIPOS>ATOM
      1 SI         -0.5921    4.6489    0.2206 Si      1  UNL1        0.0000
      2 C           0.5878    3.2300    0.4861 C.2     1  UNL1        0.0000
      3 C          -0.0224    2.0345    0.3317 C.ar    1  UNL1        0.0000
      4 C           0.6335    0.7225    0.4550 C.ar    1  UNL1        0.0000
      5 C           2.0218    0.5974    0.6498 C.ar    1  UNL1        0.0000
      6 C           2.6284   -0.6558    0.6966 C.ar    1  UNL1        0.0000
      7 C           1.7934   -1.7471    0.5398 C.ar    1  UNL1        0.0000
      8 N           0.4536   -1.6642    0.3567 N.ar    1  UNL1        0.0000
      9 C          -0.1445   -0.4460    0.3327 C.ar    1  UNL1        0.0000
     10 C          -1.6422   -0.4150    0.1029 C.ar    1  UNL1        0.0000
     11 C          -2.4816   -1.6027    0.1019 C.ar    1  UNL1        0.0000
     12 C          -2.0882   -2.9228    0.4656 C.ar    1  UNL1        0.0000
     13 C          -2.9459   -4.0315    0.4230 C.ar    1  UNL1        0.0000
     14 C          -4.2596   -3.8782    0.0213 C.ar    1  UNL1        0.0000
     15 C          -4.7163   -2.6130   -0.3205 C.ar    1  UNL1        0.0000
     16 C          -3.8530   -1.4919   -0.2720 C.ar    1  UNL1        0.0000
     17 C          -4.4085   -0.2346   -0.6046 C.ar    1  UNL1        0.0000
     18 C          -5.6932    0.2355   -1.0192 C.ar    1  UNL1        0.0000
     19 C          -5.5877    1.5945   -1.1594 C.ar    1  UNL1        0.0000
     20 O          -4.3328    1.9964   -0.8579 O.2     1  UNL1        0.0000
     21 C          -3.5990    0.8909   -0.5181 C.ar    1  UNL1        0.0000
     22 C          -2.2454    0.8631   -0.1481 C.ar    1  UNL1        0.0000
     23 C          -1.4597    2.1116    0.0011 C.ar    1  UNL1        0.0000
     24 C          -1.9181    3.3797   -0.0890 C.2     1  UNL1        0.0000
     25 C           4.0613   -0.8076    0.8908 C.ar    1  UNL1        0.0000
     26 S           4.7214   -1.7525    2.1748 S.2     1  UNL1        0.0000
     27 C           6.3480   -1.4086    1.7237 C.ar    1  UNL1        0.0000
     28 C           6.3170   -0.6103    0.6337 C.ar    1  UNL1        0.0000
     29 C           7.3274   -0.0254   -0.1661 C.ar    1  UNL1        0.0000
     30 C           6.8017    0.7333   -1.2181 C.ar    1  UNL1        0.0000
     31 S           5.0478    0.8025   -1.3306 S.2     1  UNL1        0.0000
     32 C           5.0626   -0.2534    0.1373 C.ar    1  UNL1        0.0000
     33 H          -0.8190    5.4297    1.4605 H       1  UNL1        0.0000
     34 H          -0.2562    5.4416   -0.9864 H       1  UNL1        0.0000
     35 H           1.6176    3.4354    0.7252 H       1  UNL1        0.0000
     36 H           2.6422    1.4819    0.7592 H       1  UNL1        0.0000
     37 H           2.1806   -2.7629    0.5466 H       1  UNL1        0.0000
     38 H          -1.0854   -3.1304    0.8236 H       1  UNL1        0.0000
     39 H          -2.5722   -5.0106    0.7120 H       1  UNL1        0.0000
     40 H          -4.9277   -4.7336   -0.0148 H       1  UNL1        0.0000
     41 H          -5.7563   -2.5096   -0.6186 H       1  UNL1        0.0000
     42 H          -6.5863   -0.3472   -1.1915 H       1  UNL1        0.0000
     43 H          -6.2759    2.3764   -1.4478 H       1  UNL1        0.0000
     44 H          -2.9189    3.7198   -0.2925 H       1  UNL1        0.0000
     45 H           7.1869   -1.8094    2.2749 H       1  UNL1        0.0000
     46 H           8.3929   -0.1379   -0.0069 H       1  UNL1        0.0000
     47 H           7.3625    1.2763   -1.9670 H       1  UNL1        0.0000
@<TRIPOS>BOND
     1     1     2    1
     2     2     3    2
     3     3     4   ar
     4     4     5   ar
     5     5     6   ar
     6     6     7   ar
     7     7     8   ar
     8     8     9   ar
     9     9    10   ar
    10    10    11   ar
    11    11    12   ar
    12    12    13   ar
    13    13    14   ar
    14    14    15   ar
    15    15    16   ar
    16    16    17   ar
    17    17    18   ar
    18    18    19   ar
    19    19    20   ar
    20    20    21   ar
    21    21    22   ar
    22    22    23   ar
    23    23    24    2
    24     6    25    1
    25    25    26   ar
    26    26    27   ar
    27    27    28   ar
    28    28    29   ar
    29    29    30   ar
    30    30    31   ar
    31    31    32   ar
    32    24     1    1
    33    32    25   ar
    34    23     3   ar
    35    32    28   ar
    36     9     4   ar
    37    22    10   ar
    38    16    11   ar
    39    21    17   ar
    40     1    33    1
    41     1    34    1
    42     2    35    1
    43     5    36    1
    44     7    37    1
    45    12    38    1
    46    13    39    1
    47    14    40    1
    48    15    41    1
    49    18    42    1
    50    19    43    1
    51    24    44    1
    52    27    45    1
    53    29    46    1
    54    30    47    1
