@<TRIPOS>MOLECULE
*****
 41 47 0 0 0
SMALL
GASTEIGER

@<TRIPOS>ATOM
      1 SI         -1.0349   -4.0812    1.3053 Si      1  UNL1        0.0000
      2 C           0.3987   -2.9967    0.8001 C.2     1  UNL1        0.0000
      3 C          -0.0068   -1.7534    0.4605 C.ar    1  UNL1        0.0000
      4 C           0.8833   -0.6607    0.0162 C.ar    1  UNL1        0.0000
      5 C           2.2770   -0.8178   -0.0976 C.ar    1  UNL1        0.0000
      6 C           3.0886    0.2362   -0.5206 C.ar    1  UNL1        0.0000
      7 C           2.4405    1.4251   -0.8152 C.ar    1  UNL1        0.0000
      8 N           1.1012    1.6178   -0.7188 N.ar    1  UNL1        0.0000
      9 C           0.3197    0.5893   -0.3072 C.ar    1  UNL1        0.0000
     10 C          -1.1444    0.8351   -0.2126 C.ar    1  UNL1        0.0000
     11 C          -1.8180    2.0557   -0.5141 C.ar    1  UNL1        0.0000
     12 C          -1.2272    3.2276   -0.9485 C.ar    1  UNL1        0.0000
     13 S          -2.3498    4.5157   -1.2185 S.2     1  UNL1        0.0000
     14 C          -3.6834    3.5409   -0.7585 C.ar    1  UNL1        0.0000
     15 C          -3.2191    2.3024   -0.4269 C.ar    1  UNL1        0.0000
     16 C          -4.0446    1.2369    0.0019 C.ar    1  UNL1        0.0000
     17 C          -5.4235    1.1623    0.1867 C.ar    1  UNL1        0.0000
     18 C          -5.6220   -0.1328    0.6135 C.ar    1  UNL1        0.0000
     19 O          -4.4423   -0.8149    0.6878 O.2     1  UNL1        0.0000
     20 C          -3.4336    0.0401    0.3032 C.ar    1  UNL1        0.0000
     21 C          -2.0422   -0.2114    0.2185 C.ar    1  UNL1        0.0000
     22 C          -1.4700   -1.5351    0.5637 C.ar    1  UNL1        0.0000
     23 C          -2.1483   -2.6255    0.9825 C.2     1  UNL1        0.0000
     24 C           4.5328    0.0896   -0.6436 C.ar    1  UNL1        0.0000
     25 C           5.4262   -0.9428   -0.4259 C.ar    1  UNL1        0.0000
     26 C           6.7154   -0.4415   -0.7329 C.ar    1  UNL1        0.0000
     27 C           6.5338    0.8640   -1.1190 C.ar    1  UNL1        0.0000
     28 O           5.2188    1.1943   -1.0684 O.2     1  UNL1        0.0000
     29 H          -1.2509   -5.1984    0.3550 H       1  UNL1        0.0000
     30 H          -0.9721   -4.4566    2.7381 H       1  UNL1        0.0000
     31 H           1.3961   -3.4024    0.8096 H       1  UNL1        0.0000
     32 H           2.7354   -1.7704    0.1455 H       1  UNL1        0.0000
     33 H           2.9911    2.3004   -1.1521 H       1  UNL1        0.0000
     34 H          -0.1888    3.4499   -1.1395 H       1  UNL1        0.0000
     35 H          -4.6900    3.9342   -0.7631 H       1  UNL1        0.0000
     36 H          -6.1837    1.9151    0.0412 H       1  UNL1        0.0000
     37 H          -6.4991   -0.7001    0.8930 H       1  UNL1        0.0000
     38 H          -3.2076   -2.7358    1.1406 H       1  UNL1        0.0000
     39 H           5.1835   -1.9397   -0.0865 H       1  UNL1        0.0000
     40 H           7.6588   -0.9663   -0.6794 H       1  UNL1        0.0000
     41 H           7.2014    1.6507   -1.4425 H       1  UNL1        0.0000
@<TRIPOS>BOND
     1     1     2    1
     2     2     3    2
     3     3     4   ar
     4     4     5   ar
     5     5     6   ar
     6     6     7   ar
     7     7     8   ar
     8     8     9   ar
     9     9    10   ar
    10    10    11   ar
    11    11    12   ar
    12    12    13   ar
    13    13    14   ar
    14    14    15   ar
    15    15    16   ar
    16    16    17   ar
    17    17    18   ar
    18    18    19   ar
    19    19    20   ar
    20    20    21   ar
    21    21    22   ar
    22    22    23    2
    23     6    24    1
    24    24    25   ar
    25    25    26   ar
    26    26    27   ar
    27    27    28   ar
    28    23     1    1
    29    28    24   ar
    30    22     3   ar
    31     9     4   ar
    32    21    10   ar
    33    15    11   ar
    34    20    16   ar
    35     1    29    1
    36     1    30    1
    37     2    31    1
    38     5    32    1
    39     7    33    1
    40    12    34    1
    41    14    35    1
    42    17    36    1
    43    18    37    1
    44    23    38    1
    45    25    39    1
    46    26    40    1
    47    27    41    1
