@<TRIPOS>MOLECULE
*****
 48 54 0 0 0
SMALL
GASTEIGER

@<TRIPOS>ATOM
      1 SI          2.6594    3.8283    0.4738 Si      1  UNL1        0.0000
      2 C           1.1363    2.7654    0.6396 C.2     1  UNL1        0.0000
      3 C           1.4009    1.4673    0.3777 C.ar    1  UNL1        0.0000
      4 C           0.4056    0.3840    0.4238 C.ar    1  UNL1        0.0000
      5 C          -0.9445    0.5756    0.7493 C.ar    1  UNL1        0.0000
      6 C          -1.8338   -0.5034    0.7687 C.ar    1  UNL1        0.0000
      7 C          -1.3122   -1.7523    0.4571 C.ar    1  UNL1        0.0000
      8 N          -0.0170   -1.9805    0.1382 N.ar    1  UNL1        0.0000
      9 C           0.8336   -0.9167    0.1230 C.ar    1  UNL1        0.0000
     10 C           2.2393   -1.2196   -0.2316 C.ar    1  UNL1        0.0000
     11 C           2.6252   -2.5241   -0.5227 C.ar    1  UNL1        0.0000
     12 N           3.8752   -2.9036   -0.8551 N.ar    1  UNL1        0.0000
     13 C           4.8124   -1.9501   -0.9075 C.ar    1  UNL1        0.0000
     14 C           6.0955   -2.3468   -1.2494 C.ar    1  UNL1        0.0000
     15 C           7.1367   -1.4326   -1.3306 C.ar    1  UNL1        0.0000
     16 C           6.8449   -0.1181   -1.0583 C.ar    1  UNL1        0.0000
     17 N           5.6110    0.3111   -0.7219 N.ar    1  UNL1        0.0000
     18 C           4.5828   -0.5805   -0.6401 C.ar    1  UNL1        0.0000
     19 C           3.2527   -0.2241   -0.2943 C.ar    1  UNL1        0.0000
     20 C           2.8153    1.1769    0.0227 C.ar    1  UNL1        0.0000
     21 C           3.5918    2.2826    0.0267 C.2     1  UNL1        0.0000
     22 C          -3.2509   -0.3241    1.1068 C.ar    1  UNL1        0.0000
     23 C          -3.6189   -0.3571    2.4646 C.ar    1  UNL1        0.0000
     24 C          -4.9457   -0.1987    2.8508 C.ar    1  UNL1        0.0000
     25 C          -5.9283   -0.0037    1.8849 C.ar    1  UNL1        0.0000
     26 C          -5.6011    0.0379    0.5217 C.ar    1  UNL1        0.0000
     27 C          -6.6075    0.2375   -0.4379 C.ar    1  UNL1        0.0000
     28 C          -6.3047    0.2846   -1.7977 C.ar    1  UNL1        0.0000
     29 C          -4.9899    0.1335   -2.2165 C.ar    1  UNL1        0.0000
     30 C          -3.9778   -0.0660   -1.2749 C.ar    1  UNL1        0.0000
     31 C          -4.2521   -0.1212    0.1127 C.ar    1  UNL1        0.0000
     32 H           2.5510    4.7874   -0.6517 H       1  UNL1        0.0000
     33 H           3.0807    4.4056    1.7730 H       1  UNL1        0.0000
     34 H           0.1982    3.2180    0.9149 H       1  UNL1        0.0000
     35 H          -1.3233    1.5657    0.9874 H       1  UNL1        0.0000
     36 H          -1.9445   -2.6374    0.4527 H       1  UNL1        0.0000
     37 H           1.9090   -3.3435   -0.4967 H       1  UNL1        0.0000
     38 H           6.2850   -3.3971   -1.4575 H       1  UNL1        0.0000
     39 H           8.1394   -1.7436   -1.5980 H       1  UNL1        0.0000
     40 H           7.6098    0.6516   -1.1023 H       1  UNL1        0.0000
     41 H           4.6433    2.3608   -0.1915 H       1  UNL1        0.0000
     42 H          -2.8616   -0.5102    3.2319 H       1  UNL1        0.0000
     43 H          -5.2145   -0.2281    3.9035 H       1  UNL1        0.0000
     44 H          -6.9608    0.1174    2.2068 H       1  UNL1        0.0000
     45 H          -7.6442    0.3593   -0.1306 H       1  UNL1        0.0000
     46 H          -7.0956    0.4398   -2.5267 H       1  UNL1        0.0000
     47 H          -4.7462    0.1703   -3.2752 H       1  UNL1        0.0000
     48 H          -2.9599   -0.1775   -1.6437 H       1  UNL1        0.0000
@<TRIPOS>BOND
     1     1     2    1
     2     2     3    2
     3     3     4   ar
     4     4     5   ar
     5     5     6   ar
     6     6     7   ar
     7     7     8   ar
     8     8     9   ar
     9     9    10   ar
    10    10    11   ar
    11    11    12   ar
    12    12    13   ar
    13    13    14   ar
    14    14    15   ar
    15    15    16   ar
    16    16    17   ar
    17    17    18   ar
    18    18    19   ar
    19    19    20   ar
    20    20    21    2
    21     6    22    1
    22    22    23   ar
    23    23    24   ar
    24    24    25   ar
    25    25    26   ar
    26    26    27   ar
    27    27    28   ar
    28    28    29   ar
    29    29    30   ar
    30    30    31   ar
    31    21     1    1
    32    31    22   ar
    33    20     3   ar
    34    31    26   ar
    35     9     4   ar
    36    19    10   ar
    37    18    13   ar
    38     1    32    1
    39     1    33    1
    40     2    34    1
    41     5    35    1
    42     7    36    1
    43    11    37    1
    44    14    38    1
    45    15    39    1
    46    16    40    1
    47    21    41    1
    48    23    42    1
    49    24    43    1
    50    25    44    1
    51    27    45    1
    52    28    46    1
    53    29    47    1
    54    30    48    1
