@<TRIPOS>MOLECULE
*****
 45 51 0 0 0
SMALL
GASTEIGER

@<TRIPOS>ATOM
      1 SI         -1.6945    3.6350    0.9074 Si      1  UNL1        0.0000
      2 C          -0.2993    2.5379    0.3670 C.2     1  UNL1        0.0000
      3 C          -0.7175    1.2827    0.0920 C.ar    1  UNL1        0.0000
      4 C           0.1849    0.1647   -0.2421 C.ar    1  UNL1        0.0000
      5 C           1.5661    0.3552   -0.4186 C.ar    1  UNL1        0.0000
      6 C           2.3774   -0.7344   -0.6896 C.ar    1  UNL1        0.0000
      7 N           1.8920   -1.9837   -0.7962 N.ar    1  UNL1        0.0000
      8 C           0.5538   -2.1396   -0.6366 C.ar    1  UNL1        0.0000
      9 C          -0.3713   -1.1248   -0.3585 C.ar    1  UNL1        0.0000
     10 C          -1.8502   -1.3659   -0.2409 C.ar    1  UNL1        0.0000
     11 C          -2.3718   -2.6789   -0.3932 C.ar    1  UNL1        0.0000
     12 C          -3.7375   -2.9514   -0.4082 C.ar    1  UNL1        0.0000
     13 C          -4.6262   -1.9022   -0.2951 C.ar    1  UNL1        0.0000
     14 C          -6.0848   -2.0947   -0.3771 C.2     1  UNL1        0.0000
     15 C          -6.7899   -0.9562   -0.3007 C.2     1  UNL1        0.0000
     16 SI         -5.6976    0.5359   -0.0990 Si      1  UNL1        0.0000
     17 C          -4.1562   -0.5697   -0.1104 C.ar    1  UNL1        0.0000
     18 C          -2.7724   -0.2847   -0.0276 C.ar    1  UNL1        0.0000
     19 C          -2.1781    1.0612    0.2440 C.ar    1  UNL1        0.0000
     20 C          -2.8162    2.1538    0.7195 C.2     1  UNL1        0.0000
     21 C           3.8227   -0.5927   -0.8574 C.ar    1  UNL1        0.0000
     22 S           4.5828   -1.2448   -2.2774 S.2     1  UNL1        0.0000
     23 C           6.1500   -0.6875   -1.8216 C.ar    1  UNL1        0.0000
     24 C           6.0693   -0.0384   -0.6293 C.ar    1  UNL1        0.0000
     25 SI          7.2794    0.8233    0.5255 Si      1  UNL1        0.0000
     26 C           5.8105    1.1750    1.7001 C.2     1  UNL1        0.0000
     27 C           4.6533    0.6819    1.2066 C.2     1  UNL1        0.0000
     28 C           4.7656    0.0227   -0.0638 C.ar    1  UNL1        0.0000
     29 H          -1.5650    4.0716    2.3180 H       1  UNL1        0.0000
     30 H          -1.9996    4.7033   -0.0737 H       1  UNL1        0.0000
     31 H           0.7035    2.9303    0.3584 H       1  UNL1        0.0000
     32 H           2.0154    1.3390   -0.3563 H       1  UNL1        0.0000
     33 H           0.2592   -3.1760   -0.7591 H       1  UNL1        0.0000
     34 H          -1.7221   -3.5391   -0.5220 H       1  UNL1        0.0000
     35 H          -4.0861   -3.9714   -0.5416 H       1  UNL1        0.0000
     36 H          -6.5217   -3.0776   -0.4966 H       1  UNL1        0.0000
     37 H          -7.8643   -0.8672   -0.3435 H       1  UNL1        0.0000
     38 H          -5.7705    1.4420   -1.2726 H       1  UNL1        0.0000
     39 H          -5.9341    1.1982    1.2097 H       1  UNL1        0.0000
     40 H          -3.8377    2.2860    1.0143 H       1  UNL1        0.0000
     41 H           7.0073   -0.8793   -2.4524 H       1  UNL1        0.0000
     42 H           8.2657   -0.0825    1.1648 H       1  UNL1        0.0000
     43 H           7.8346    2.0891   -0.0152 H       1  UNL1        0.0000
     44 H           5.9611    1.6935    2.6333 H       1  UNL1        0.0000
     45 H           3.7101    0.7605    1.7353 H       1  UNL1        0.0000
@<TRIPOS>BOND
     1     1     2    1
     2     2     3    2
     3     3     4   ar
     4     4     5   ar
     5     5     6   ar
     6     6     7   ar
     7     7     8   ar
     8     8     9   ar
     9     9    10   ar
    10    10    11   ar
    11    11    12   ar
    12    12    13   ar
    13    13    14    1
    14    14    15    2
    15    15    16    1
    16    16    17    1
    17    17    18   ar
    18    18    19   ar
    19    19    20    2
    20     6    21    1
    21    21    22   ar
    22    22    23   ar
    23    23    24   ar
    24    24    25    1
    25    25    26    1
    26    26    27    2
    27    27    28    1
    28    20     1    1
    29    28    21   ar
    30    19     3   ar
    31    28    24   ar
    32     9     4   ar
    33    18    10   ar
    34    17    13   ar
    35     1    29    1
    36     1    30    1
    37     2    31    1
    38     5    32    1
    39     8    33    1
    40    11    34    1
    41    12    35    1
    42    14    36    1
    43    15    37    1
    44    16    38    1
    45    16    39    1
    46    20    40    1
    47    23    41    1
    48    25    42    1
    49    25    43    1
    50    26    44    1
    51    27    45    1
