@<TRIPOS>MOLECULE
*****
 35 40 0 0 0
SMALL
GASTEIGER

@<TRIPOS>ATOM
      1 SI         -2.4228    3.9515    0.2731 Si      1  UNL1        0.0000
      2 C          -0.6971    3.2311    0.2233 C.2     1  UNL1        0.0000
      3 C          -0.7409    1.8877    0.1305 C.ar    1  UNL1        0.0000
      4 C           0.3807    0.9908    0.0685 C.ar    1  UNL1        0.0000
      5 C           1.7770    1.1797    0.0815 C.ar    1  UNL1        0.0000
      6 C           2.3526   -0.0841   -0.0058 C.ar    1  UNL1        0.0000
      7 O           1.3537   -1.0308   -0.0712 O.2     1  UNL1        0.0000
      8 C           0.1694   -0.3743   -0.0259 C.ar    1  UNL1        0.0000
      9 C          -1.1463   -0.9209   -0.0636 C.ar    1  UNL1        0.0000
     10 N          -1.5055   -2.2277   -0.1539 N.ar    1  UNL1        0.0000
     11 C          -2.8853   -2.2732   -0.1570 C.ar    1  UNL1        0.0000
     12 C          -3.8917   -3.2734   -0.2261 C.ar    1  UNL1        0.0000
     13 C          -5.1383   -2.6862   -0.1856 C.ar    1  UNL1        0.0000
     14 S          -5.1120   -0.9700   -0.0670 S.2     1  UNL1        0.0000
     15 C          -3.3796   -0.9924   -0.0685 C.ar    1  UNL1        0.0000
     16 C          -2.2672   -0.1147   -0.0079 C.ar    1  UNL1        0.0000
     17 C          -2.1345    1.3079    0.0904 C.ar    1  UNL1        0.0000
     18 C          -3.1188    2.2245    0.1538 C.2     1  UNL1        0.0000
     19 C           3.7368   -0.4498   -0.0311 C.ar    1  UNL1        0.0000
     20 C           4.3017   -1.7080   -0.1180 C.ar    1  UNL1        0.0000
     21 C           5.7095   -1.5551   -0.1075 C.ar    1  UNL1        0.0000
     22 C           5.9717   -0.2074   -0.0146 C.ar    1  UNL1        0.0000
     23 N           4.7705    0.4534    0.0311 N.ar    1  UNL1        0.0000
     24 H          -2.7181    4.5984    1.5738 H       1  UNL1        0.0000
     25 H          -2.7181    4.7712   -0.9262 H       1  UNL1        0.0000
     26 H           0.1777    3.8588    0.2667 H       1  UNL1        0.0000
     27 H           2.3049    2.1189    0.1464 H       1  UNL1        0.0000
     28 H          -0.9008   -3.0371   -0.2098 H       1  UNL1        0.0000
     29 H          -3.7212   -4.3394   -0.2998 H       1  UNL1        0.0000
     30 H          -6.0961   -3.1872   -0.2202 H       1  UNL1        0.0000
     31 H          -4.1818    2.0466    0.1415 H       1  UNL1        0.0000
     32 H           3.7517   -2.6384   -0.1821 H       1  UNL1        0.0000
     33 H           6.4490   -2.3435   -0.1619 H       1  UNL1        0.0000
     34 H           6.9053    0.3376    0.0230 H       1  UNL1        0.0000
     35 H           4.6640    1.4557    0.1002 H       1  UNL1        0.0000
@<TRIPOS>BOND
     1     1     2    1
     2     2     3    2
     3     3     4   ar
     4     4     5   ar
     5     5     6   ar
     6     6     7   ar
     7     7     8   ar
     8     8     9   ar
     9     9    10   ar
    10    10    11   ar
    11    11    12   ar
    12    12    13   ar
    13    13    14   ar
    14    14    15   ar
    15    15    16   ar
    16    16    17   ar
    17    17    18    2
    18     6    19    1
    19    19    20   ar
    20    20    21   ar
    21    21    22   ar
    22    22    23   ar
    23    18     1    1
    24    23    19   ar
    25    17     3   ar
    26     8     4   ar
    27    16     9   ar
    28    15    11   ar
    29     1    24    1
    30     1    25    1
    31     2    26    1
    32     5    27    1
    33    10    28    1
    34    12    29    1
    35    13    30    1
    36    18    31    1
    37    20    32    1
    38    21    33    1
    39    22    34    1
    40    23    35    1
