@<TRIPOS>MOLECULE
*****
 42 48 0 0 0
SMALL
GASTEIGER

@<TRIPOS>ATOM
      1 SI          1.2848    1.1853    0.2807 Si      1  UNL1        0.0000
      2 C           2.7016   -0.0961    0.1637 C.2     1  UNL1        0.0000
      3 C           2.1883   -1.3445    0.0419 C.2     1  UNL1        0.0000
      4 C           0.7259   -1.4123    0.0295 C.ar    1  UNL1        0.0000
      5 C          -0.0168   -0.1980    0.1428 C.ar    1  UNL1        0.0000
      6 C          -1.4575   -0.0950    0.1467 C.ar    1  UNL1        0.0000
      7 C          -2.1407    1.1362    0.2618 C.ar    1  UNL1        0.0000
      8 C          -3.5472    1.2341    0.2653 C.ar    1  UNL1        0.0000
      9 C          -4.1921    2.4771    0.3816 C.ar    1  UNL1        0.0000
     10 C          -5.5852    2.5650    0.3842 C.ar    1  UNL1        0.0000
     11 C          -6.3535    1.4112    0.2705 C.ar    1  UNL1        0.0000
     12 C          -5.7291    0.1688    0.1542 C.ar    1  UNL1        0.0000
     13 C          -4.3279    0.0662    0.1502 C.ar    1  UNL1        0.0000
     14 C          -3.6884   -1.1739    0.0341 C.ar    1  UNL1        0.0000
     15 C          -2.2743   -1.2675    0.0310 C.ar    1  UNL1        0.0000
     16 C          -1.5252   -2.4824   -0.0822 C.ar    1  UNL1        0.0000
     17 C          -2.0833   -3.7352   -0.2045 C.ar    1  UNL1        0.0000
     18 S          -0.8894   -4.9653   -0.3174 S.2     1  UNL1        0.0000
     19 C           0.3930   -3.8300   -0.2034 C.ar    1  UNL1        0.0000
     20 C          -0.0785   -2.5446   -0.0823 C.ar    1  UNL1        0.0000
     21 C           4.1384    0.2403    0.2017 C.ar    1  UNL1        0.0000
     22 C           5.1655   -0.7216    0.1145 C.ar    1  UNL1        0.0000
     23 N           6.5304   -0.5450    0.1370 N.ar    1  UNL1        0.0000
     24 C           7.0614    0.6998    0.2577 C.ar    1  UNL1        0.0000
     25 C           6.1756    1.7868    0.3574 C.ar    1  UNL1        0.0000
     26 N           6.5249    3.0773    0.4817 N.ar    1  UNL1        0.0000
     27 S           5.1139    3.9389    0.5579 S.2     1  UNL1        0.0000
     28 N           4.0040    2.7179    0.4370 N.ar    1  UNL1        0.0000
     29 C           4.6762    1.5561    0.3292 C.ar    1  UNL1        0.0000
     30 H           1.2217    2.0827   -0.9020 H       1  UNL1        0.0000
     31 H           1.2116    1.8417    1.6118 H       1  UNL1        0.0000
     32 H           2.7655   -2.2539   -0.0429 H       1  UNL1        0.0000
     33 H          -1.5753    2.0613    0.3528 H       1  UNL1        0.0000
     34 H          -3.6108    3.3923    0.4717 H       1  UNL1        0.0000
     35 H          -6.0683    3.5344    0.4750 H       1  UNL1        0.0000
     36 H          -7.4384    1.4763    0.2722 H       1  UNL1        0.0000
     37 H          -6.3468   -0.7222    0.0662 H       1  UNL1        0.0000
     38 H          -4.2928   -2.0721   -0.0544 H       1  UNL1        0.0000
     39 H          -3.1244   -4.0214   -0.2362 H       1  UNL1        0.0000
     40 H           1.4127   -4.1859   -0.2333 H       1  UNL1        0.0000
     41 H           4.9113   -1.7766    0.0130 H       1  UNL1        0.0000
     42 H           8.1389    0.7942    0.2711 H       1  UNL1        0.0000
@<TRIPOS>BOND
     1     1     2    1
     2     2     3    2
     3     3     4    1
     4     4     5   ar
     5     5     6   ar
     6     6     7   ar
     7     7     8   ar
     8     8     9   ar
     9     9    10   ar
    10    10    11   ar
    11    11    12   ar
    12    12    13   ar
    13    13    14   ar
    14    14    15   ar
    15    15    16   ar
    16    16    17   ar
    17    17    18   ar
    18    18    19   ar
    19    19    20   ar
    20     2    21    1
    21    21    22   ar
    22    22    23   ar
    23    23    24   ar
    24    24    25   ar
    25    25    26   ar
    26    26    27   ar
    27    27    28   ar
    28    28    29   ar
    29     5     1    1
    30    15     6   ar
    31    20    16   ar
    32    29    21   ar
    33    20     4   ar
    34    29    25   ar
    35    13     8   ar
    36     1    30    1
    37     1    31    1
    38     3    32    1
    39     7    33    1
    40     9    34    1
    41    10    35    1
    42    11    36    1
    43    12    37    1
    44    14    38    1
    45    17    39    1
    46    19    40    1
    47    22    41    1
    48    24    42    1
