@<TRIPOS>MOLECULE
*****
 41 47 0 0 0
SMALL
GASTEIGER

@<TRIPOS>ATOM
      1 SI          2.0780   -3.8907    0.9214 Si      1  UNL1        0.0000
      2 C           0.4267   -3.0932    0.6676 C.2     1  UNL1        0.0000
      3 C           0.5556   -1.7830    0.3860 C.ar    1  UNL1        0.0000
      4 C          -0.5104   -0.8823    0.1373 C.ar    1  UNL1        0.0000
      5 C          -1.9132   -0.9954    0.0953 C.ar    1  UNL1        0.0000
      6 C          -2.4107    0.2699   -0.2065 C.ar    1  UNL1        0.0000
      7 O          -1.3455    1.1380   -0.3464 O.2     1  UNL1        0.0000
      8 C          -0.2142    0.4243   -0.1356 C.ar    1  UNL1        0.0000
      9 C           1.0971    1.0476   -0.2100 C.ar    1  UNL1        0.0000
     10 C           1.2129    2.4178   -0.5055 C.ar    1  UNL1        0.0000
     11 C           2.4617    3.0203   -0.5782 C.ar    1  UNL1        0.0000
     12 C           3.5928    2.2468   -0.3542 C.ar    1  UNL1        0.0000
     13 C           4.9521    2.8163   -0.4143 C.2     1  UNL1        0.0000
     14 C           5.9281    1.9282   -0.1724 C.2     1  UNL1        0.0000
     15 SI          5.2644    0.2259    0.1698 Si      1  UNL1        0.0000
     16 C           3.4967    0.8489   -0.0517 C.ar    1  UNL1        0.0000
     17 C           2.2442    0.2134    0.0280 C.ar    1  UNL1        0.0000
     18 C           1.9671   -1.2505    0.3363 C.ar    1  UNL1        0.0000
     19 C           2.8718   -2.2217    0.5926 C.2     1  UNL1        0.0000
     20 C          -3.7732    0.6930   -0.3644 C.ar    1  UNL1        0.0000
     21 S          -4.1742    2.3511   -0.7487 S.2     1  UNL1        0.0000
     22 C          -5.8804    2.0614   -0.7661 C.ar    1  UNL1        0.0000
     23 C          -6.0720    0.7602   -0.4886 C.ar    1  UNL1        0.0000
     24 O          -7.2737    0.1277   -0.4064 O.2     1  UNL1        0.0000
     25 C          -6.8427   -1.1497   -0.1045 C.ar    1  UNL1        0.0000
     26 C          -5.4511   -1.2780   -0.0101 C.ar    1  UNL1        0.0000
     27 C          -4.9402    0.0103   -0.2696 C.ar    1  UNL1        0.0000
     28 H           2.4059   -4.8813   -0.1311 H       1  UNL1        0.0000
     29 H           2.2893   -4.3437    2.3166 H       1  UNL1        0.0000
     30 H          -0.4905   -3.6543    0.7471 H       1  UNL1        0.0000
     31 H          -2.4986   -1.8862    0.2630 H       1  UNL1        0.0000
     32 H           0.3223    3.0180   -0.6799 H       1  UNL1        0.0000
     33 H           2.5404    4.0789   -0.8069 H       1  UNL1        0.0000
     34 H           5.1182    3.8625   -0.6361 H       1  UNL1        0.0000
     35 H           6.9876    2.1326   -0.1666 H       1  UNL1        0.0000
     36 H           5.6679   -0.7505   -0.8736 H       1  UNL1        0.0000
     37 H           5.5515   -0.2163    1.5580 H       1  UNL1        0.0000
     38 H           3.9416   -2.1845    0.6353 H       1  UNL1        0.0000
     39 H          -6.6180    2.8237   -0.9691 H       1  UNL1        0.0000
     40 H          -7.6459   -1.8654    0.0149 H       1  UNL1        0.0000
     41 H          -4.9193   -2.1901    0.2161 H       1  UNL1        0.0000
@<TRIPOS>BOND
     1     1     2    1
     2     2     3    2
     3     3     4   ar
     4     4     5   ar
     5     5     6   ar
     6     6     7   ar
     7     7     8   ar
     8     8     9   ar
     9     9    10   ar
    10    10    11   ar
    11    11    12   ar
    12    12    13    1
    13    13    14    2
    14    14    15    1
    15    15    16    1
    16    16    17   ar
    17    17    18   ar
    18    18    19    2
    19     6    20    1
    20    20    21   ar
    21    21    22   ar
    22    22    23   ar
    23    23    24   ar
    24    24    25   ar
    25    25    26   ar
    26    26    27   ar
    27    19     1    1
    28    27    20   ar
    29    18     3   ar
    30    27    23   ar
    31     8     4   ar
    32    17     9   ar
    33    16    12   ar
    34     1    28    1
    35     1    29    1
    36     2    30    1
    37     5    31    1
    38    10    32    1
    39    11    33    1
    40    13    34    1
    41    14    35    1
    42    15    36    1
    43    15    37    1
    44    19    38    1
    45    22    39    1
    46    25    40    1
    47    26    41    1
