@<TRIPOS>MOLECULE
*****
 44 50 0 0 0
SMALL
GASTEIGER

@<TRIPOS>ATOM
      1 SI          1.1823    4.4109    1.3254 Si      1  UNL1        0.0000
      2 C          -0.3532    3.4233    1.0110 C.2     1  UNL1        0.0000
      3 C          -0.0669    2.1466    0.6810 C.ar    1  UNL1        0.0000
      4 C          -1.0320    1.1375    0.3779 C.ar    1  UNL1        0.0000
      5 C          -2.4509    1.2747    0.3730 C.ar    1  UNL1        0.0000
      6 C          -3.1115    0.1013    0.0501 C.ar    1  UNL1        0.0000
      7 S          -1.9552   -1.1334   -0.2526 S.2     1  UNL1        0.0000
      8 C          -0.6069   -0.1354    0.0450 C.ar    1  UNL1        0.0000
      9 C           0.8084   -0.5435   -0.0242 C.ar    1  UNL1        0.0000
     10 C           1.3155   -1.8103   -0.3660 C.ar    1  UNL1        0.0000
     11 C           0.6566   -2.9626   -0.7322 C.ar    1  UNL1        0.0000
     12 N           1.5929   -3.9441   -0.9713 N.ar    1  UNL1        0.0000
     13 C           2.8531   -3.4434   -0.7681 C.ar    1  UNL1        0.0000
     14 C           2.7096   -2.1270   -0.3960 C.ar    1  UNL1        0.0000
     15 C           3.7540   -1.2306   -0.0928 C.ar    1  UNL1        0.0000
     16 C           5.1289   -1.5635   -0.1234 C.ar    1  UNL1        0.0000
     17 C           6.0622   -0.5977    0.1944 C.ar    1  UNL1        0.0000
     18 C           5.5852    0.6488    0.5262 C.ar    1  UNL1        0.0000
     19 N           4.2708    0.9796    0.5583 N.ar    1  UNL1        0.0000
     20 C           3.3035    0.0784    0.2567 C.ar    1  UNL1        0.0000
     21 C           1.8745    0.4076    0.2833 C.ar    1  UNL1        0.0000
     22 C           1.3881    1.8076    0.6417 C.ar    1  UNL1        0.0000
     23 C           2.1591    2.8763    0.9487 C.2     1  UNL1        0.0000
     24 C          -4.5094   -0.1274   -0.0601 C.2     1  UNL1        0.0000
     25 C          -5.4053    0.8132   -0.4311 C.2     1  UNL1        0.0000
     26 C          -6.7970    0.3853   -0.4513 C.2     1  UNL1        0.0000
     27 C          -7.0097   -0.8914   -0.0860 C.2     1  UNL1        0.0000
     28 SI         -5.3901   -1.7500    0.3443 Si      1  UNL1        0.0000
     29 H           1.2976    4.8405    2.7402 H       1  UNL1        0.0000
     30 H           1.3779    5.4849    0.3215 H       1  UNL1        0.0000
     31 H          -1.3273    3.8757    1.0974 H       1  UNL1        0.0000
     32 H          -2.9757    2.1921    0.6079 H       1  UNL1        0.0000
     33 H          -0.3837   -3.2164   -0.8595 H       1  UNL1        0.0000
     34 H           1.3785   -4.8912   -1.2571 H       1  UNL1        0.0000
     35 H           3.7188   -4.0749   -0.9113 H       1  UNL1        0.0000
     36 H           5.4602   -2.5612   -0.3909 H       1  UNL1        0.0000
     37 H           7.1244   -0.8086    0.1843 H       1  UNL1        0.0000
     38 H           6.2644    1.4556    0.7874 H       1  UNL1        0.0000
     39 H           3.2314    2.9401    0.9977 H       1  UNL1        0.0000
     40 H          -5.1510    1.8289   -0.7096 H       1  UNL1        0.0000
     41 H          -7.5848    1.0689   -0.7435 H       1  UNL1        0.0000
     42 H          -7.9557   -1.4060   -0.0314 H       1  UNL1        0.0000
     43 H          -5.3370   -2.1109    1.7839 H       1  UNL1        0.0000
     44 H          -5.0945   -2.8482   -0.6113 H       1  UNL1        0.0000
@<TRIPOS>BOND
     1     1     2    1
     2     2     3    2
     3     3     4   ar
     4     4     5   ar
     5     5     6   ar
     6     6     7   ar
     7     7     8   ar
     8     8     9   ar
     9     9    10   ar
    10    10    11   ar
    11    11    12   ar
    12    12    13   ar
    13    13    14   ar
    14    14    15   ar
    15    15    16   ar
    16    16    17   ar
    17    17    18   ar
    18    18    19   ar
    19    19    20   ar
    20    20    21   ar
    21    21    22   ar
    22    22    23    2
    23     6    24    1
    24    24    25    2
    25    25    26    1
    26    26    27    2
    27    27    28    1
    28    23     1    1
    29    28    24    1
    30    22     3   ar
    31     8     4   ar
    32    21     9   ar
    33    14    10   ar
    34    20    15   ar
    35     1    29    1
    36     1    30    1
    37     2    31    1
    38     5    32    1
    39    11    33    1
    40    12    34    1
    41    13    35    1
    42    16    36    1
    43    17    37    1
    44    18    38    1
    45    23    39    1
    46    25    40    1
    47    26    41    1
    48    27    42    1
    49    28    43    1
    50    28    44    1
