@<TRIPOS>MOLECULE
*****
 48 55 0 0 0
SMALL
GASTEIGER

@<TRIPOS>ATOM
      1 SI         -1.4008   -3.7304    1.6186 Si      1  UNL1        0.0000
      2 C           0.2987   -3.0974    1.2010 C.2     1  UNL1        0.0000
      3 C           0.2463   -1.8358    0.7276 C.ar    1  UNL1        0.0000
      4 C           1.3666   -0.9798    0.4867 C.ar    1  UNL1        0.0000
      5 C           2.7440   -1.3355    0.4346 C.ar    1  UNL1        0.0000
      6 C           3.5571   -0.2530    0.1491 C.ar    1  UNL1        0.0000
      7 S           2.6125    1.1618   -0.0748 S.2     1  UNL1        0.0000
      8 C           1.1444    0.3750    0.2933 C.ar    1  UNL1        0.0000
      9 C          -0.1961    0.9912    0.2447 C.ar    1  UNL1        0.0000
     10 C          -0.5297    2.3595    0.2757 C.ar    1  UNL1        0.0000
     11 C           0.3300    3.3782    0.6248 C.ar    1  UNL1        0.0000
     12 S          -0.4118    4.9216    0.5783 S.2     1  UNL1        0.0000
     13 C          -1.9200    4.2467    0.1366 C.ar    1  UNL1        0.0000
     14 C          -1.8708    2.8730    0.0300 C.ar    1  UNL1        0.0000
     15 C          -2.9987    2.0787   -0.3271 C.ar    1  UNL1        0.0000
     16 C          -4.3153    2.6313   -0.6558 C.ar    1  UNL1        0.0000
     17 C          -5.4134    1.8725   -1.0954 C.ar    1  UNL1        0.0000
     18 C          -5.0459    0.5472   -1.2223 C.ar    1  UNL1        0.0000
     19 C          -5.8526   -0.4234   -1.7589 C.ar    1  UNL1        0.0000
     20 N          -5.0981   -1.5698   -1.8284 N.ar    1  UNL1        0.0000
     21 C          -3.8280   -1.3276   -1.3512 C.ar    1  UNL1        0.0000
     22 C          -3.7805   -0.0323   -0.8839 C.ar    1  UNL1        0.0000
     23 C          -2.6536    0.6598   -0.3340 C.ar    1  UNL1        0.0000
     24 C          -1.3492    0.1425    0.1066 C.ar    1  UNL1        0.0000
     25 C          -1.1242   -1.2719    0.5728 C.ar    1  UNL1        0.0000
     26 C          -2.0781   -2.0757    1.0936 C.2     1  UNL1        0.0000
     27 C           5.0178   -0.2057   -0.0073 C.ar    1  UNL1        0.0000
     28 C           5.7401   -1.3076   -0.4596 C.ar    1  UNL1        0.0000
     29 C           7.1252   -1.2056   -0.5722 C.ar    1  UNL1        0.0000
     30 C           7.7497   -0.0133   -0.2292 C.ar    1  UNL1        0.0000
     31 C           6.9593    1.0328    0.2138 C.ar    1  UNL1        0.0000
     32 N           5.6161    0.9618    0.3334 N.ar    1  UNL1        0.0000
     33 H          -1.5710   -3.9886    3.0682 H       1  UNL1        0.0000
     34 H          -1.8322   -4.8270    0.7177 H       1  UNL1        0.0000
     35 H           1.1789   -3.6746    1.4320 H       1  UNL1        0.0000
     36 H           3.1237   -2.3363    0.5945 H       1  UNL1        0.0000
     37 H           1.3624    3.3395    0.9349 H       1  UNL1        0.0000
     38 H          -2.7528    4.9187   -0.0060 H       1  UNL1        0.0000
     39 H          -4.4726    3.7061   -0.5833 H       1  UNL1        0.0000
     40 H          -6.3702    2.2980   -1.3595 H       1  UNL1        0.0000
     41 H          -6.8665   -0.4031   -2.1346 H       1  UNL1        0.0000
     42 H          -5.4095   -2.4473   -2.2242 H       1  UNL1        0.0000
     43 H          -3.0814   -2.1064   -1.4124 H       1  UNL1        0.0000
     44 H          -3.1248   -1.8540    1.2279 H       1  UNL1        0.0000
     45 H           5.2430   -2.2311   -0.7353 H       1  UNL1        0.0000
     46 H           7.7098   -2.0493   -0.9276 H       1  UNL1        0.0000
     47 H           8.8251    0.1000   -0.3065 H       1  UNL1        0.0000
     48 H           7.3971    1.9867    0.4938 H       1  UNL1        0.0000
@<TRIPOS>BOND
     1     1     2    1
     2     2     3    2
     3     3     4   ar
     4     4     5   ar
     5     5     6   ar
     6     6     7   ar
     7     7     8   ar
     8     8     9   ar
     9     9    10   ar
    10    10    11   ar
    11    11    12   ar
    12    12    13   ar
    13    13    14   ar
    14    14    15   ar
    15    15    16   ar
    16    16    17   ar
    17    17    18   ar
    18    18    19   ar
    19    19    20   ar
    20    20    21   ar
    21    21    22   ar
    22    22    23   ar
    23    23    24   ar
    24    24    25   ar
    25    25    26    2
    26     6    27    1
    27    27    28   ar
    28    28    29   ar
    29    29    30   ar
    30    30    31   ar
    31    31    32   ar
    32    26     1    1
    33    32    27   ar
    34    25     3   ar
    35     8     4   ar
    36    24     9   ar
    37    14    10   ar
    38    23    15   ar
    39    22    18   ar
    40     1    33    1
    41     1    34    1
    42     2    35    1
    43     5    36    1
    44    11    37    1
    45    13    38    1
    46    16    39    1
    47    17    40    1
    48    19    41    1
    49    20    42    1
    50    21    43    1
    51    26    44    1
    52    28    45    1
    53    29    46    1
    54    30    47    1
    55    31    48    1
