@<TRIPOS>MOLECULE
*****
 43 50 0 0 0
SMALL
GASTEIGER

@<TRIPOS>ATOM
      1 SI         -1.1344    4.8004    1.5149 Si      1  UNL1        0.0000
      2 C           0.3362    3.7503    1.0725 C.2     1  UNL1        0.0000
      3 C          -0.0421    2.5379    0.6203 C.ar    1  UNL1        0.0000
      4 C           0.8248    1.4813    0.1922 C.ar    1  UNL1        0.0000
      5 C           2.2484    1.4756    0.1489 C.ar    1  UNL1        0.0000
      6 C           2.7521    0.2746   -0.3130 C.ar    1  UNL1        0.0000
      7 S           1.4910   -0.8124   -0.7140 S.2     1  UNL1        0.0000
      8 C           0.2722    0.2899   -0.2485 C.ar    1  UNL1        0.0000
      9 C          -1.1784    0.0020   -0.3166 C.ar    1  UNL1        0.0000
     10 C          -1.6896   -1.2217   -0.7683 C.ar    1  UNL1        0.0000
     11 C          -3.0822   -1.4451   -0.8132 C.ar    1  UNL1        0.0000
     12 C          -3.6550   -2.6818   -1.2685 C.ar    1  UNL1        0.0000
     13 N          -2.9916   -3.7691   -1.7030 N.ar    1  UNL1        0.0000
     14 S          -4.1372   -4.9008   -2.1010 S.2     1  UNL1        0.0000
     15 N          -5.5309   -4.0725   -1.7446 N.ar    1  UNL1        0.0000
     16 C          -5.1504   -2.8668   -1.2956 C.ar    1  UNL1        0.0000
     17 C          -6.0195   -1.8354   -0.8768 C.ar    1  UNL1        0.0000
     18 C          -5.4062   -0.6456   -0.4407 C.ar    1  UNL1        0.0000
     19 C          -3.9986   -0.4395   -0.4029 C.ar    1  UNL1        0.0000
     20 C          -3.4698    0.7798    0.0470 C.ar    1  UNL1        0.0000
     21 C          -2.0818    1.0190    0.0980 C.ar    1  UNL1        0.0000
     22 C          -1.5145    2.3150    0.5767 C.ar    1  UNL1        0.0000
     23 C          -2.2355    3.3761    1.0020 C.2     1  UNL1        0.0000
     24 C           4.1335   -0.0653   -0.4985 C.ar    1  UNL1        0.0000
     25 S           5.2236    0.9440   -1.3846 S.2     1  UNL1        0.0000
     26 C           6.5571   -0.1196   -1.1543 C.ar    1  UNL1        0.0000
     27 C           6.1311   -1.1643   -0.4113 C.ar    1  UNL1        0.0000
     28 C           6.7812   -2.3152    0.0936 C.ar    1  UNL1        0.0000
     29 C           5.9217   -3.1285    0.8400 C.ar    1  UNL1        0.0000
     30 S           4.2621   -2.5711    0.9987 S.2     1  UNL1        0.0000
     31 C           4.7907   -1.1706   -0.0204 C.ar    1  UNL1        0.0000
     32 H          -1.2879    5.9753    0.6243 H       1  UNL1        0.0000
     33 H          -1.2219    5.0806    2.9678 H       1  UNL1        0.0000
     34 H           1.3412    4.1229    1.1862 H       1  UNL1        0.0000
     35 H           2.8784    2.3043    0.4474 H       1  UNL1        0.0000
     36 H          -1.0250   -2.0200   -1.0913 H       1  UNL1        0.0000
     37 H          -7.0956   -1.9587   -0.8925 H       1  UNL1        0.0000
     38 H          -6.0658    0.1607   -0.1138 H       1  UNL1        0.0000
     39 H          -4.1593    1.5581    0.3643 H       1  UNL1        0.0000
     40 H          -3.3049    3.4801    1.0718 H       1  UNL1        0.0000
     41 H           7.5339    0.0970   -1.5630 H       1  UNL1        0.0000
     42 H           7.8244   -2.5618   -0.0620 H       1  UNL1        0.0000
     43 H           6.1745   -4.0593    1.3295 H       1  UNL1        0.0000
@<TRIPOS>BOND
     1     1     2    1
     2     2     3    2
     3     3     4   ar
     4     4     5   ar
     5     5     6   ar
     6     6     7   ar
     7     7     8   ar
     8     8     9   ar
     9     9    10   ar
    10    10    11   ar
    11    11    12   ar
    12    12    13   ar
    13    13    14   ar
    14    14    15   ar
    15    15    16   ar
    16    16    17   ar
    17    17    18   ar
    18    18    19   ar
    19    19    20   ar
    20    20    21   ar
    21    21    22   ar
    22    22    23    2
    23     6    24    1
    24    24    25   ar
    25    25    26   ar
    26    26    27   ar
    27    27    28   ar
    28    28    29   ar
    29    29    30   ar
    30    30    31   ar
    31    23     1    1
    32    31    24   ar
    33    22     3   ar
    34    31    27   ar
    35     8     4   ar
    36    21     9   ar
    37    19    11   ar
    38    16    12   ar
    39     1    32    1
    40     1    33    1
    41     2    34    1
    42     5    35    1
    43    10    36    1
    44    17    37    1
    45    18    38    1
    46    20    39    1
    47    23    40    1
    48    26    41    1
    49    28    42    1
    50    29    43    1
