@<TRIPOS>MOLECULE
*****
 40 45 0 0 0
SMALL
GASTEIGER

@<TRIPOS>ATOM
      1 SI         -1.7079   -3.7658    1.3726 Si      1  UNL1        0.0000
      2 C          -0.0983   -2.8692    1.1692 C.2     1  UNL1        0.0000
      3 C          -0.2840   -1.6243    0.6862 C.ar    1  UNL1        0.0000
      4 C           0.7494   -0.7424    0.2403 C.ar    1  UNL1        0.0000
      5 C           2.1585   -0.9112    0.3324 C.ar    1  UNL1        0.0000
      6 C           2.8666    0.1302   -0.2486 C.ar    1  UNL1        0.0000
      7 S           1.7801    1.2921   -0.8990 S.2     1  UNL1        0.0000
      8 C           0.3958    0.4241   -0.4076 C.ar    1  UNL1        0.0000
      9 C          -0.9910    0.8886   -0.6072 C.ar    1  UNL1        0.0000
     10 C          -1.3032    2.0608   -1.2784 C.ar    1  UNL1        0.0000
     11 N          -2.5485    2.5653   -1.3971 N.ar    1  UNL1        0.0000
     12 C          -3.5438    1.9392   -0.7612 C.ar    1  UNL1        0.0000
     13 C          -4.7952    2.5371   -0.8275 C.ar    1  UNL1        0.0000
     14 C          -5.8996    2.0224   -0.1521 C.ar    1  UNL1        0.0000
     15 C          -5.7462    0.8914    0.6291 C.ar    1  UNL1        0.0000
     16 C          -4.4984    0.2683    0.6985 C.ar    1  UNL1        0.0000
     17 C          -3.3701    0.7411   -0.0265 C.ar    1  UNL1        0.0000
     18 C          -2.0653    0.1477   -0.0452 C.ar    1  UNL1        0.0000
     19 C          -1.7102   -1.2181    0.4890 C.ar    1  UNL1        0.0000
     20 C          -2.5657   -2.2439    0.6995 C.2     1  UNL1        0.0000
     21 C           4.3308    0.2851   -0.3396 C.ar    1  UNL1        0.0000
     22 C           4.9728    1.3839   -0.9072 C.ar    1  UNL1        0.0000
     23 C           6.3668    1.4156   -0.9339 C.ar    1  UNL1        0.0000
     24 C           7.0841    0.3559   -0.3961 C.ar    1  UNL1        0.0000
     25 C           6.3744   -0.6978    0.1497 C.ar    1  UNL1        0.0000
     26 N           5.0252   -0.7557    0.1896 N.ar    1  UNL1        0.0000
     27 H          -2.0554   -4.0164    2.7917 H       1  UNL1        0.0000
     28 H          -1.8402   -4.9295    0.4642 H       1  UNL1        0.0000
     29 H           0.8426   -3.3679    1.3397 H       1  UNL1        0.0000
     30 H           2.6532   -1.7562    0.7967 H       1  UNL1        0.0000
     31 H          -0.5444    2.6689   -1.7618 H       1  UNL1        0.0000
     32 H          -4.9095    3.4473   -1.4129 H       1  UNL1        0.0000
     33 H          -6.8617    2.5224   -0.2189 H       1  UNL1        0.0000
     34 H          -6.5859    0.4980    1.1962 H       1  UNL1        0.0000
     35 H          -4.4112   -0.5719    1.3785 H       1  UNL1        0.0000
     36 H          -3.6242   -2.2939    0.5152 H       1  UNL1        0.0000
     37 H           4.4199    2.2160   -1.3278 H       1  UNL1        0.0000
     38 H           6.8855    2.2637   -1.3721 H       1  UNL1        0.0000
     39 H           8.1682    0.3512   -0.4017 H       1  UNL1        0.0000
     40 H           6.8863   -1.5518    0.5840 H       1  UNL1        0.0000
@<TRIPOS>BOND
     1     1     2    1
     2     2     3    2
     3     3     4   ar
     4     4     5   ar
     5     5     6   ar
     6     6     7   ar
     7     7     8   ar
     8     8     9   ar
     9     9    10   ar
    10    10    11   ar
    11    11    12   ar
    12    12    13   ar
    13    13    14   ar
    14    14    15   ar
    15    15    16   ar
    16    16    17   ar
    17    17    18   ar
    18    18    19   ar
    19    19    20    2
    20     6    21    1
    21    21    22   ar
    22    22    23   ar
    23    23    24   ar
    24    24    25   ar
    25    25    26   ar
    26    20     1    1
    27    26    21   ar
    28    19     3   ar
    29     8     4   ar
    30    18     9   ar
    31    17    12   ar
    32     1    27    1
    33     1    28    1
    34     2    29    1
    35     5    30    1
    36    10    31    1
    37    13    32    1
    38    14    33    1
    39    15    34    1
    40    16    35    1
    41    20    36    1
    42    22    37    1
    43    23    38    1
    44    24    39    1
    45    25    40    1
