@<TRIPOS>MOLECULE
*****
 46 52 0 0 0
SMALL
GASTEIGER

@<TRIPOS>ATOM
      1 SI         -4.9171   -1.3906   -1.5791 Si      1  UNL1        0.0000
      2 C          -5.2905   -0.1164   -0.2800 C.2     1  UNL1        0.0000
      3 C          -4.1543    0.4028    0.2257 C.ar    1  UNL1        0.0000
      4 C          -4.0664    1.5202    1.1209 C.ar    1  UNL1        0.0000
      5 C          -5.0359    2.2964    1.7898 C.ar    1  UNL1        0.0000
      6 C          -4.3512    3.2704    2.4929 C.ar    1  UNL1        0.0000
      7 N          -3.0025    3.1063    2.2642 N.ar    1  UNL1        0.0000
      8 C          -2.8252    2.0438    1.4279 C.ar    1  UNL1        0.0000
      9 C          -1.6218    1.4641    0.9312 C.ar    1  UNL1        0.0000
     10 N          -0.3479    1.8998    1.0883 N.ar    1  UNL1        0.0000
     11 C           0.5221    1.0014    0.5080 C.ar    1  UNL1        0.0000
     12 C           1.9128    1.0850    0.4059 C.ar    1  UNL1        0.0000
     13 C           2.6118    0.0169   -0.1737 C.ar    1  UNL1        0.0000
     14 C           4.0637    0.1709   -0.2827 C.2     1  UNL1        0.0000
     15 C           4.7439    0.6775   -1.3312 C.2     1  UNL1        0.0000
     16 C           6.1880    0.7250   -1.1625 C.2     1  UNL1        0.0000
     17 C           6.6443    0.2626    0.0163 C.2     1  UNL1        0.0000
     18 SI          5.2304   -0.3256    1.1190 Si      1  UNL1        0.0000
     19 C           1.9299   -1.1490   -0.5967 C.ar    1  UNL1        0.0000
     20 C           2.6000   -2.2716   -1.1414 C.ar    1  UNL1        0.0000
     21 C           1.9266   -3.4504   -1.4637 C.ar    1  UNL1        0.0000
     22 C           0.5646   -3.5486   -1.2302 C.ar    1  UNL1        0.0000
     23 C          -0.1301   -2.4525   -0.7194 C.ar    1  UNL1        0.0000
     24 C           0.5142   -1.2253   -0.4481 C.ar    1  UNL1        0.0000
     25 C          -0.2241   -0.0858    0.0250 C.ar    1  UNL1        0.0000
     26 C          -1.6027    0.3154    0.1505 C.ar    1  UNL1        0.0000
     27 C          -2.8761   -0.1974   -0.3205 C.ar    1  UNL1        0.0000
     28 C          -3.0976   -1.0684   -1.3260 C.2     1  UNL1        0.0000
     29 H          -5.3084   -2.7597   -1.1649 H       1  UNL1        0.0000
     30 H          -5.3834   -0.9846   -2.9268 H       1  UNL1        0.0000
     31 H          -6.2992    0.1933   -0.0601 H       1  UNL1        0.0000
     32 H          -6.1100    2.1713    1.7670 H       1  UNL1        0.0000
     33 H          -4.7059    4.0651    3.1352 H       1  UNL1        0.0000
     34 H          -2.2716    3.6756    2.6661 H       1  UNL1        0.0000
     35 H          -0.0648    2.7479    1.5551 H       1  UNL1        0.0000
     36 H           2.4402    1.9654    0.7636 H       1  UNL1        0.0000
     37 H           4.2779    1.0304   -2.2434 H       1  UNL1        0.0000
     38 H           6.8265    1.1110   -1.9476 H       1  UNL1        0.0000
     39 H           7.6710    0.2088    0.3417 H       1  UNL1        0.0000
     40 H           5.0861    0.5309    2.3239 H       1  UNL1        0.0000
     41 H           5.2934   -1.7915    1.3429 H       1  UNL1        0.0000
     42 H           3.6745   -2.2451   -1.3098 H       1  UNL1        0.0000
     43 H           2.4756   -4.2963   -1.8682 H       1  UNL1        0.0000
     44 H           0.0398   -4.4780   -1.4338 H       1  UNL1        0.0000
     45 H          -1.1792   -2.5876   -0.4828 H       1  UNL1        0.0000
     46 H          -2.3710   -1.5340   -1.9689 H       1  UNL1        0.0000
@<TRIPOS>BOND
     1     1     2    1
     2     2     3    2
     3     3     4   ar
     4     4     5   ar
     5     5     6   ar
     6     6     7   ar
     7     7     8   ar
     8     8     9   ar
     9     9    10   ar
    10    10    11   ar
    11    11    12   ar
    12    12    13   ar
    13    13    14    1
    14    14    15    2
    15    15    16    1
    16    16    17    2
    17    17    18    1
    18    13    19   ar
    19    19    20   ar
    20    20    21   ar
    21    21    22   ar
    22    22    23   ar
    23    23    24   ar
    24    24    25   ar
    25    25    26   ar
    26    26    27   ar
    27    27    28    2
    28    28     1    1
    29    27     3   ar
    30     8     4   ar
    31    26     9   ar
    32    25    11   ar
    33    18    14    1
    34    24    19   ar
    35     1    29    1
    36     1    30    1
    37     2    31    1
    38     5    32    1
    39     6    33    1
    40     7    34    1
    41    10    35    1
    42    12    36    1
    43    15    37    1
    44    16    38    1
    45    17    39    1
    46    18    40    1
    47    18    41    1
    48    20    42    1
    49    21    43    1
    50    22    44    1
    51    23    45    1
    52    28    46    1
