@<TRIPOS>MOLECULE
*****
 48 55 0 0 0
SMALL
GASTEIGER

@<TRIPOS>ATOM
      1 SI         -2.1576    4.5110    0.7346 Si      1  UNL1        0.0000
      2 C          -3.6815    3.4622    0.7083 C.2     1  UNL1        0.0000
      3 C          -3.3821    2.1924    0.3770 C.ar    1  UNL1        0.0000
      4 C          -4.3033    1.1615    0.0682 C.ar    1  UNL1        0.0000
      5 C          -5.7104    1.1365    0.0074 C.ar    1  UNL1        0.0000
      6 C          -6.0511   -0.0853   -0.5298 C.ar    1  UNL1        0.0000
      7 N          -4.8898   -0.7730   -0.7972 N.ar    1  UNL1        0.0000
      8 C          -3.8073   -0.0593   -0.3501 C.ar    1  UNL1        0.0000
      9 C          -2.4326   -0.5034   -0.4236 C.ar    1  UNL1        0.0000
     10 C          -1.4843    0.4836   -0.1635 C.ar    1  UNL1        0.0000
     11 C          -0.1106    0.0391   -0.2361 C.ar    1  UNL1        0.0000
     12 N           0.9717    0.7553    0.2003 N.ar    1  UNL1        0.0000
     13 C           2.1483    0.0754   -0.0522 C.ar    1  UNL1        0.0000
     14 C           1.7956   -1.1479   -0.5927 C.ar    1  UNL1        0.0000
     15 C           0.3872   -1.1796   -0.6496 C.ar    1  UNL1        0.0000
     16 C          -0.5316   -2.2116   -0.9599 C.ar    1  UNL1        0.0000
     17 C          -0.2299   -3.4811   -1.2899 C.2     1  UNL1        0.0000
     18 SI         -1.7532   -4.5309   -1.3200 Si      1  UNL1        0.0000
     19 C          -2.7433   -3.0166   -0.8182 C.2     1  UNL1        0.0000
     20 C          -1.9786   -1.9021   -0.7441 C.ar    1  UNL1        0.0000
     21 C           3.4345    0.6286    0.2674 C.ar    1  UNL1        0.0000
     22 S           3.6782    2.3486    0.3334 S.2     1  UNL1        0.0000
     23 C           5.3496    2.2031    0.7300 C.ar    1  UNL1        0.0000
     24 C           5.7085    0.8869    0.8230 C.ar    1  UNL1        0.0000
     25 C           6.9719    0.2941    1.1405 C.2     1  UNL1        0.0000
     26 C           6.9751   -1.0560    1.1637 C.2     1  UNL1        0.0000
     27 SI          5.2429   -1.7575    0.7564 Si      1  UNL1        0.0000
     28 C           4.6170    0.0110    0.5605 C.ar    1  UNL1        0.0000
     29 C          -1.9363    1.8821    0.1575 C.ar    1  UNL1        0.0000
     30 C          -1.1705    2.9963    0.2294 C.2     1  UNL1        0.0000
     31 H          -1.7944    4.9753    2.0950 H       1  UNL1        0.0000
     32 H          -2.1520    5.5556   -0.3171 H       1  UNL1        0.0000
     33 H          -4.6653    3.8793    0.8503 H       1  UNL1        0.0000
     34 H          -6.3992    1.9278    0.2699 H       1  UNL1        0.0000
     35 H          -7.0126   -0.5095   -0.7853 H       1  UNL1        0.0000
     36 H          -4.8563   -1.6480   -1.2954 H       1  UNL1        0.0000
     37 H           0.9457    1.6365    0.6866 H       1  UNL1        0.0000
     38 H           2.4688   -1.9412   -0.8829 H       1  UNL1        0.0000
     39 H           0.7540   -3.8982   -1.4307 H       1  UNL1        0.0000
     40 H          -2.1150   -4.9955   -2.6805 H       1  UNL1        0.0000
     41 H          -1.7622   -5.5744   -0.2675 H       1  UNL1        0.0000
     42 H          -3.7891   -3.1490   -0.6176 H       1  UNL1        0.0000
     43 H           5.9558    3.0862    0.8744 H       1  UNL1        0.0000
     44 H           7.8522    0.8926    1.3454 H       1  UNL1        0.0000
     45 H           7.8037   -1.7117    1.3767 H       1  UNL1        0.0000
     46 H           4.6900   -2.4814    1.9282 H       1  UNL1        0.0000
     47 H           5.2747   -2.5379   -0.5067 H       1  UNL1        0.0000
     48 H          -0.1252    3.1302    0.0266 H       1  UNL1        0.0000
@<TRIPOS>BOND
     1     1     2    1
     2     2     3    2
     3     3     4   ar
     4     4     5   ar
     5     5     6   ar
     6     6     7   ar
     7     7     8   ar
     8     8     9   ar
     9     9    10   ar
    10    10    11   ar
    11    11    12   ar
    12    12    13   ar
    13    13    14   ar
    14    14    15   ar
    15    15    16   ar
    16    16    17    2
    17    17    18    1
    18    18    19    1
    19    19    20    2
    20    13    21    1
    21    21    22   ar
    22    22    23   ar
    23    23    24   ar
    24    24    25    1
    25    25    26    2
    26    26    27    1
    27    27    28    1
    28    10    29   ar
    29    29    30    2
    30    30     1    1
    31    29     3   ar
    32     8     4   ar
    33    20     9   ar
    34    28    21   ar
    35    15    11   ar
    36    20    16   ar
    37    28    24   ar
    38     1    31    1
    39     1    32    1
    40     2    33    1
    41     5    34    1
    42     6    35    1
    43     7    36    1
    44    12    37    1
    45    14    38    1
    46    17    39    1
    47    18    40    1
    48    18    41    1
    49    19    42    1
    50    23    43    1
    51    25    44    1
    52    26    45    1
    53    27    46    1
    54    27    47    1
    55    30    48    1
