@<TRIPOS>MOLECULE
*****
 46 53 0 0 0
SMALL
GASTEIGER

@<TRIPOS>ATOM
      1 SI         -2.3749    4.0482    1.5910 Si      1  UNL1        0.0000
      2 C          -3.7452    2.9884    0.9225 C.2     1  UNL1        0.0000
      3 C          -3.2737    1.8011    0.4942 C.ar    1  UNL1        0.0000
      4 C          -4.0626    0.6758    0.1182 C.ar    1  UNL1        0.0000
      5 C          -5.4437    0.5299   -0.1256 C.ar    1  UNL1        0.0000
      6 C          -5.6427   -0.7879   -0.4778 C.ar    1  UNL1        0.0000
      7 N          -4.4258   -1.4272   -0.4506 N.ar    1  UNL1        0.0000
      8 C          -3.4516   -0.5574   -0.0329 C.ar    1  UNL1        0.0000
      9 C          -2.0147   -0.7823    0.0740 C.ar    1  UNL1        0.0000
     10 C          -1.3505   -2.0123    0.0684 C.ar    1  UNL1        0.0000
     11 C          -1.8911   -3.2748    0.1557 C.ar    1  UNL1        0.0000
     12 N          -0.8500   -4.1769    0.1435 N.ar    1  UNL1        0.0000
     13 C           0.3503   -3.5108    0.0684 C.ar    1  UNL1        0.0000
     14 C           0.0753   -2.1629    0.0399 C.ar    1  UNL1        0.0000
     15 C           1.0188   -1.1115   -0.0474 C.ar    1  UNL1        0.0000
     16 C           2.4549   -1.3356   -0.1420 C.ar    1  UNL1        0.0000
     17 C           3.4035   -0.3088   -0.3149 C.ar    1  UNL1        0.0000
     18 C           4.8308   -0.5559   -0.4198 C.ar    1  UNL1        0.0000
     19 N           5.3605   -1.5417   -1.1184 N.ar    1  UNL1        0.0000
     20 C           6.7338   -1.5388   -0.9778 C.ar    1  UNL1        0.0000
     21 C           7.2431   -0.5695   -0.1435 C.ar    1  UNL1        0.0000
     22 S           5.9624    0.3707    0.4945 S.2     1  UNL1        0.0000
     23 C           2.7629    0.9187   -0.4777 C.ar    1  UNL1        0.0000
     24 C           3.3271    2.1094   -0.8639 C.ar    1  UNL1        0.0000
     25 O           2.3548    3.0463   -1.0448 O.2     1  UNL1        0.0000
     26 C           1.1585    2.4473   -0.7834 C.ar    1  UNL1        0.0000
     27 C           1.3456    1.1517   -0.3630 C.ar    1  UNL1        0.0000
     28 C           0.3387    0.1849   -0.0541 C.ar    1  UNL1        0.0000
     29 C          -1.1163    0.3402    0.1581 C.ar    1  UNL1        0.0000
     30 C          -1.7873    1.6312    0.5688 C.ar    1  UNL1        0.0000
     31 C          -1.1869    2.6519    1.2209 C.2     1  UNL1        0.0000
     32 H          -2.5066    4.3082    3.0448 H       1  UNL1        0.0000
     33 H          -2.1128    5.2412    0.7504 H       1  UNL1        0.0000
     34 H          -4.7785    3.2862    0.9967 H       1  UNL1        0.0000
     35 H          -6.2076    1.2937   -0.0738 H       1  UNL1        0.0000
     36 H          -6.5382   -1.3216   -0.7653 H       1  UNL1        0.0000
     37 H          -4.2729   -2.3829   -0.7354 H       1  UNL1        0.0000
     38 H          -2.9008   -3.6405    0.2610 H       1  UNL1        0.0000
     39 H          -0.9515   -5.1824    0.1997 H       1  UNL1        0.0000
     40 H           1.2761   -4.0691    0.0490 H       1  UNL1        0.0000
     41 H           2.8295   -2.3583   -0.0934 H       1  UNL1        0.0000
     42 H           7.3215   -2.2781   -1.5082 H       1  UNL1        0.0000
     43 H           8.2735   -0.3809    0.1205 H       1  UNL1        0.0000
     44 H           4.3287    2.4445   -1.0939 H       1  UNL1        0.0000
     45 H           0.2959    3.0700   -0.9711 H       1  UNL1        0.0000
     46 H          -0.1602    2.7284    1.5385 H       1  UNL1        0.0000
@<TRIPOS>BOND
     1     1     2    1
     2     2     3    2
     3     3     4   ar
     4     4     5   ar
     5     5     6   ar
     6     6     7   ar
     7     7     8   ar
     8     8     9   ar
     9     9    10   ar
    10    10    11   ar
    11    11    12   ar
    12    12    13   ar
    13    13    14   ar
    14    14    15   ar
    15    15    16   ar
    16    16    17   ar
    17    17    18    1
    18    18    19   ar
    19    19    20   ar
    20    20    21   ar
    21    21    22   ar
    22    17    23   ar
    23    23    24   ar
    24    24    25   ar
    25    25    26   ar
    26    26    27   ar
    27    27    28   ar
    28    28    29   ar
    29    29    30   ar
    30    30    31    2
    31    31     1    1
    32    30     3   ar
    33     8     4   ar
    34    29     9   ar
    35    14    10   ar
    36    28    15   ar
    37    22    18   ar
    38    27    23   ar
    39     1    32    1
    40     1    33    1
    41     2    34    1
    42     5    35    1
    43     6    36    1
    44     7    37    1
    45    11    38    1
    46    12    39    1
    47    13    40    1
    48    16    41    1
    49    20    42    1
    50    21    43    1
    51    24    44    1
    52    26    45    1
    53    31    46    1
