@<TRIPOS>MOLECULE
*****
 38 43 0 0 0
SMALL
GASTEIGER

@<TRIPOS>ATOM
      1 SI         -1.7100   -3.6759   -0.4132 Si      1  UNL1        0.0000
      2 C          -3.1924   -2.5751   -0.1873 C.2     1  UNL1        0.0000
      3 C          -2.8222   -1.2885   -0.0382 C.ar    1  UNL1        0.0000
      4 C          -3.6900   -0.1720    0.1562 C.ar    1  UNL1        0.0000
      5 C          -5.0952   -0.0800    0.2451 C.ar    1  UNL1        0.0000
      6 C          -5.3942    1.2523    0.4368 C.ar    1  UNL1        0.0000
      7 N          -4.2151    1.9582    0.4654 N.ar    1  UNL1        0.0000
      8 C          -3.1574    1.0999    0.2946 C.ar    1  UNL1        0.0000
      9 C          -1.7254    1.4303    0.2599 C.ar    1  UNL1        0.0000
     10 C          -1.2566    2.7412    0.4069 C.ar    1  UNL1        0.0000
     11 C           0.1154    3.0231    0.3691 C.ar    1  UNL1        0.0000
     12 C           1.0258    1.9687    0.1805 C.ar    1  UNL1        0.0000
     13 C           2.4412    1.8747    0.0908 C.ar    1  UNL1        0.0000
     14 C           2.7575    0.5418   -0.1020 C.ar    1  UNL1        0.0000
     15 O           1.5948   -0.1793   -0.1335 O.2     1  UNL1        0.0000
     16 C           0.5423    0.6719    0.0361 C.ar    1  UNL1        0.0000
     17 C          -0.8194    0.3445    0.0674 C.ar    1  UNL1        0.0000
     18 C          -1.3475   -1.0397   -0.0860 C.ar    1  UNL1        0.0000
     19 C          -0.6239   -2.1648   -0.2736 C.2     1  UNL1        0.0000
     20 C           4.0366   -0.0813   -0.2540 C.ar    1  UNL1        0.0000
     21 C           4.3335   -1.4172   -0.4464 C.ar    1  UNL1        0.0000
     22 C           5.7410   -1.5416   -0.5396 C.ar    1  UNL1        0.0000
     23 C           6.2710   -0.2792   -0.4020 C.ar    1  UNL1        0.0000
     24 N           5.2307    0.5981   -0.2296 N.ar    1  UNL1        0.0000
     25 H          -1.6620   -4.2920   -1.7616 H       1  UNL1        0.0000
     26 H          -1.5266   -4.6184    0.7173 H       1  UNL1        0.0000
     27 H          -4.1958   -2.9682   -0.1843 H       1  UNL1        0.0000
     28 H          -5.8136   -0.8858    0.1782 H       1  UNL1        0.0000
     29 H          -6.3422    1.7593    0.5553 H       1  UNL1        0.0000
     30 H          -4.1455    2.9576    0.5932 H       1  UNL1        0.0000
     31 H          -1.9448    3.5683    0.5534 H       1  UNL1        0.0000
     32 H           0.4666    4.0445    0.4844 H       1  UNL1        0.0000
     33 H           3.1412    2.6938    0.1604 H       1  UNL1        0.0000
     34 H           0.4462   -2.2644   -0.3452 H       1  UNL1        0.0000
     35 H           3.6066   -2.2171   -0.5121 H       1  UNL1        0.0000
     36 H           6.3038   -2.4537   -0.6906 H       1  UNL1        0.0000
     37 H           7.2946    0.0704   -0.4118 H       1  UNL1        0.0000
     38 H           5.3309    1.5955   -0.1035 H       1  UNL1        0.0000
@<TRIPOS>BOND
     1     1     2    1
     2     2     3    2
     3     3     4   ar
     4     4     5   ar
     5     5     6   ar
     6     6     7   ar
     7     7     8   ar
     8     8     9   ar
     9     9    10   ar
    10    10    11   ar
    11    11    12   ar
    12    12    13   ar
    13    13    14   ar
    14    14    15   ar
    15    15    16   ar
    16    16    17   ar
    17    17    18   ar
    18    18    19    2
    19    14    20    1
    20    20    21   ar
    21    21    22   ar
    22    22    23   ar
    23    23    24   ar
    24    19     1    1
    25    24    20   ar
    26    18     3   ar
    27     8     4   ar
    28    17     9   ar
    29    16    12   ar
    30     1    25    1
    31     1    26    1
    32     2    27    1
    33     5    28    1
    34     6    29    1
    35     7    30    1
    36    10    31    1
    37    11    32    1
    38    13    33    1
    39    19    34    1
    40    21    35    1
    41    22    36    1
    42    23    37    1
    43    24    38    1
