@<TRIPOS>MOLECULE
*****
 41 47 0 0 0
SMALL
GASTEIGER

@<TRIPOS>ATOM
      1 SI          0.6760   -4.0107    2.2647 Si      1  UNL1        0.0000
      2 C          -0.8268   -3.0247    1.7477 C.2     1  UNL1        0.0000
      3 C          -0.4854   -1.8935    1.0931 C.ar    1  UNL1        0.0000
      4 C          -1.4330   -0.8884    0.5486 C.ar    1  UNL1        0.0000
      5 C          -2.8314   -1.0349    0.6736 C.ar    1  UNL1        0.0000
      6 C          -3.7311   -0.0887    0.1612 C.ar    1  UNL1        0.0000
      7 C          -5.1350   -0.2715    0.3070 C.ar    1  UNL1        0.0000
      8 C          -6.1035    0.6283   -0.1769 C.ar    1  UNL1        0.0000
      9 C          -5.6121    1.7725   -0.8433 C.ar    1  UNL1        0.0000
     10 N          -6.3648    2.7471   -1.3763 N.ar    1  UNL1        0.0000
     11 S          -5.3092    3.8465   -2.0340 S.2     1  UNL1        0.0000
     12 N          -3.8545    3.1370   -1.6728 N.ar    1  UNL1        0.0000
     13 C          -4.1313    1.9962   -1.0147 C.ar    1  UNL1        0.0000
     14 C          -3.1871    1.0427   -0.4995 C.ar    1  UNL1        0.0000
     15 C          -1.7907    1.1984   -0.6296 C.ar    1  UNL1        0.0000
     16 C          -0.8929    0.2447   -0.1129 C.ar    1  UNL1        0.0000
     17 C           0.5776    0.4237   -0.2585 C.ar    1  UNL1        0.0000
     18 N           0.9808    1.5476   -0.9107 N.ar    1  UNL1        0.0000
     19 C           2.3125    1.7530   -1.0672 C.ar    1  UNL1        0.0000
     20 C           3.3051    0.8962   -0.6086 C.ar    1  UNL1        0.0000
     21 C           2.8639   -0.2543    0.0600 C.ar    1  UNL1        0.0000
     22 C           1.4970   -0.5099    0.2461 C.ar    1  UNL1        0.0000
     23 C           0.9759   -1.7023    0.9408 C.ar    1  UNL1        0.0000
     24 C           1.7290   -2.6857    1.4787 C.2     1  UNL1        0.0000
     25 C           4.7484    1.1298   -0.7845 C.ar    1  UNL1        0.0000
     26 N           5.6831    0.3060   -0.3427 N.ar    1  UNL1        0.0000
     27 C           6.9395    0.7853   -0.6531 C.ar    1  UNL1        0.0000
     28 C           6.9651    1.9796   -1.3345 C.ar    1  UNL1        0.0000
     29 S           5.3654    2.5241   -1.5974 S.2     1  UNL1        0.0000
     30 H           0.8327   -4.0656    3.7377 H       1  UNL1        0.0000
     31 H           0.7680   -5.3088    1.5551 H       1  UNL1        0.0000
     32 H          -1.8096   -3.3941    1.9872 H       1  UNL1        0.0000
     33 H          -3.2345   -1.9070    1.1824 H       1  UNL1        0.0000
     34 H          -5.4995   -1.1610    0.8246 H       1  UNL1        0.0000
     35 H          -7.1656    0.4585   -0.0486 H       1  UNL1        0.0000
     36 H          -1.4057    2.0797   -1.1431 H       1  UNL1        0.0000
     37 H           2.5403    2.6730   -1.5981 H       1  UNL1        0.0000
     38 H           3.6068   -0.9537    0.4364 H       1  UNL1        0.0000
     39 H           2.8030   -2.7728    1.4964 H       1  UNL1        0.0000
     40 H           7.8122    0.2170   -0.3551 H       1  UNL1        0.0000
     41 H           7.8216    2.5405   -1.6795 H       1  UNL1        0.0000
@<TRIPOS>BOND
     1     1     2    1
     2     2     3    2
     3     3     4   ar
     4     4     5   ar
     5     5     6   ar
     6     6     7   ar
     7     7     8   ar
     8     8     9   ar
     9     9    10   ar
    10    10    11   ar
    11    11    12   ar
    12    12    13   ar
    13    13    14   ar
    14    14    15   ar
    15    15    16   ar
    16    16    17   ar
    17    17    18   ar
    18    18    19   ar
    19    19    20   ar
    20    20    21   ar
    21    21    22   ar
    22    22    23   ar
    23    23    24    2
    24    20    25    1
    25    25    26   ar
    26    26    27   ar
    27    27    28   ar
    28    28    29   ar
    29    24     1    1
    30    29    25   ar
    31    23     3   ar
    32    16     4   ar
    33    22    17   ar
    34    14     6   ar
    35    13     9   ar
    36     1    30    1
    37     1    31    1
    38     2    32    1
    39     5    33    1
    40     7    34    1
    41     8    35    1
    42    15    36    1
    43    19    37    1
    44    21    38    1
    45    24    39    1
    46    27    40    1
    47    28    41    1
