@<TRIPOS>MOLECULE
*****
 40 46 0 0 0
SMALL
GASTEIGER

@<TRIPOS>ATOM
      1 SI         -0.8065    1.4593    1.2165 Si      1  UNL1        0.0000
      2 C          -2.1883    0.6089    0.2464 C.2     1  UNL1        0.0000
      3 C          -1.7187   -0.2661   -0.6661 C.2     1  UNL1        0.0000
      4 C          -0.2622   -0.3351   -0.6911 C.ar    1  UNL1        0.0000
      5 C           0.4949    0.4788    0.2146 C.ar    1  UNL1        0.0000
      6 C           1.9400    0.5129    0.3072 C.ar    1  UNL1        0.0000
      7 C           2.6217    1.3404    1.2242 C.ar    1  UNL1        0.0000
      8 C           4.0189    1.3078    1.2434 C.ar    1  UNL1        0.0000
      9 O           4.8067    2.0494    2.0724 O.2     1  UNL1        0.0000
     10 C           6.0955    1.7336    1.7821 C.ar    1  UNL1        0.0000
     11 C           6.1489    0.7970    0.7759 C.ar    1  UNL1        0.0000
     12 C           4.8036    0.5143    0.4196 C.ar    1  UNL1        0.0000
     13 C           4.1680   -0.3233   -0.5068 C.ar    1  UNL1        0.0000
     14 C           2.7484   -0.3160   -0.5539 C.ar    1  UNL1        0.0000
     15 C           1.9730   -1.1120   -1.4413 C.ar    1  UNL1        0.0000
     16 C           2.4217   -2.0045   -2.3863 C.ar    1  UNL1        0.0000
     17 N           1.3124   -2.5399   -3.0080 N.ar    1  UNL1        0.0000
     18 C           0.1600   -2.0045   -2.4739 C.ar    1  UNL1        0.0000
     19 C           0.5450   -1.1167   -1.5014 C.ar    1  UNL1        0.0000
     20 C          -3.5681    0.8223    0.4854 C.ar    1  UNL1        0.0000
     21 S          -4.2409    2.4258    0.7623 S.2     1  UNL1        0.0000
     22 C          -5.8678    1.8601    0.9270 C.ar    1  UNL1        0.0000
     23 C          -5.8496    0.5269    0.7681 C.ar    1  UNL1        0.0000
     24 O          -6.9231   -0.3071    0.8237 O.2     1  UNL1        0.0000
     25 C          -6.2886   -1.5151    0.5986 C.ar    1  UNL1        0.0000
     26 C          -4.9037   -1.4103    0.4163 C.ar    1  UNL1        0.0000
     27 C          -4.6210   -0.0355    0.5285 C.ar    1  UNL1        0.0000
     28 H          -0.7899    1.0783    2.6531 H       1  UNL1        0.0000
     29 H          -0.7091    2.9181    0.9498 H       1  UNL1        0.0000
     30 H          -2.3240   -0.8684   -1.3289 H       1  UNL1        0.0000
     31 H           2.1079    1.9994    1.9132 H       1  UNL1        0.0000
     32 H           6.8445    2.2495    2.3664 H       1  UNL1        0.0000
     33 H           7.0456    0.3700    0.3507 H       1  UNL1        0.0000
     34 H           4.7507   -0.9564   -1.1662 H       1  UNL1        0.0000
     35 H           3.4130   -2.3157   -2.6844 H       1  UNL1        0.0000
     36 H           1.3411   -3.2265   -3.7507 H       1  UNL1        0.0000
     37 H          -0.8095   -2.3091   -2.8428 H       1  UNL1        0.0000
     38 H          -6.7125    2.5043    1.1212 H       1  UNL1        0.0000
     39 H          -6.9565   -2.3666    0.5993 H       1  UNL1        0.0000
     40 H          -4.2215   -2.2284    0.2359 H       1  UNL1        0.0000
@<TRIPOS>BOND
     1     1     2    1
     2     2     3    2
     3     3     4    1
     4     4     5   ar
     5     5     6   ar
     6     6     7   ar
     7     7     8   ar
     8     8     9   ar
     9     9    10   ar
    10    10    11   ar
    11    11    12   ar
    12    12    13   ar
    13    13    14   ar
    14    14    15   ar
    15    15    16   ar
    16    16    17   ar
    17    17    18   ar
    18    18    19   ar
    19     2    20    1
    20    20    21   ar
    21    21    22   ar
    22    22    23   ar
    23    23    24   ar
    24    24    25   ar
    25    25    26   ar
    26    26    27   ar
    27     5     1    1
    28    14     6   ar
    29    19    15   ar
    30    27    20   ar
    31    19     4   ar
    32    27    23   ar
    33    12     8   ar
    34     1    28    1
    35     1    29    1
    36     3    30    1
    37     7    31    1
    38    10    32    1
    39    11    33    1
    40    13    34    1
    41    16    35    1
    42    17    36    1
    43    18    37    1
    44    22    38    1
    45    25    39    1
    46    26    40    1
