@<TRIPOS>MOLECULE
*****
 46 53 0 0 0
SMALL
GASTEIGER

@<TRIPOS>ATOM
      1 SI         -1.6675    4.0735    2.0408 Si      1  UNL1        0.0000
      2 C          -3.0892    3.0012    1.5221 C.2     1  UNL1        0.0000
      3 C          -2.6797    1.8754    0.8957 C.ar    1  UNL1        0.0000
      4 C          -3.5944    0.8270    0.3708 C.ar    1  UNL1        0.0000
      5 C          -5.0197    0.8936    0.6448 C.ar    1  UNL1        0.0000
      6 C          -5.9614   -0.0939    0.2933 C.ar    1  UNL1        0.0000
      7 C          -5.3230   -1.1642   -0.3020 C.ar    1  UNL1        0.0000
      8 C          -5.9492   -2.3286   -0.6631 C.ar    1  UNL1        0.0000
      9 N          -4.9710   -3.1706   -1.1319 N.ar    1  UNL1        0.0000
     10 C          -3.7391   -2.5515   -1.0616 C.ar    1  UNL1        0.0000
     11 C          -3.9249   -1.2656   -0.6015 C.ar    1  UNL1        0.0000
     12 C          -2.9702   -0.2521   -0.3472 C.ar    1  UNL1        0.0000
     13 C          -1.5223   -0.2763   -0.6728 C.ar    1  UNL1        0.0000
     14 C          -1.0069   -1.1119   -1.6673 C.ar    1  UNL1        0.0000
     15 C           0.3619   -1.2489   -1.8867 C.ar    1  UNL1        0.0000
     16 C           1.2826   -0.5456   -1.0892 C.ar    1  UNL1        0.0000
     17 C           2.7177   -0.6052   -1.1151 C.ar    1  UNL1        0.0000
     18 C           3.3147    0.2181   -0.1917 C.ar    1  UNL1        0.0000
     19 S           2.1416    1.0676    0.6959 S.2     1  UNL1        0.0000
     20 C           0.7931    0.3792   -0.1530 C.ar    1  UNL1        0.0000
     21 C          -0.6145    0.6002   -0.0042 C.ar    1  UNL1        0.0000
     22 C          -1.1989    1.7464    0.7576 C.ar    1  UNL1        0.0000
     23 C          -0.5406    2.8119    1.2670 C.2     1  UNL1        0.0000
     24 C           4.7202    0.3809    0.0530 C.ar    1  UNL1        0.0000
     25 S           5.4930    1.9238    0.1795 S.2     1  UNL1        0.0000
     26 C           7.0523    1.2391    0.4274 C.ar    1  UNL1        0.0000
     27 C           6.9229   -0.1053    0.4070 C.ar    1  UNL1        0.0000
     28 C           7.8480   -1.1649    0.5614 C.ar    1  UNL1        0.0000
     29 C           7.2392   -2.4214    0.4720 C.ar    1  UNL1        0.0000
     30 S           5.5029   -2.4296    0.1967 S.2     1  UNL1        0.0000
     31 C           5.6431   -0.6236    0.2020 C.ar    1  UNL1        0.0000
     32 H          -1.5201    4.1517    3.5143 H       1  UNL1        0.0000
     33 H          -1.6467    5.3745    1.3295 H       1  UNL1        0.0000
     34 H          -4.0925    3.3267    1.7350 H       1  UNL1        0.0000
     35 H          -5.4180    1.7517    1.1826 H       1  UNL1        0.0000
     36 H          -7.0140   -0.0267    0.5251 H       1  UNL1        0.0000
     37 H          -6.9799   -2.6509   -0.6053 H       1  UNL1        0.0000
     38 H          -5.1228   -4.1219   -1.4409 H       1  UNL1        0.0000
     39 H          -2.8604   -3.1199   -1.3268 H       1  UNL1        0.0000
     40 H          -1.6667   -1.6686   -2.3250 H       1  UNL1        0.0000
     41 H           0.7150   -1.9280   -2.6591 H       1  UNL1        0.0000
     42 H           3.2740   -1.2403   -1.7942 H       1  UNL1        0.0000
     43 H           0.5065    3.0445    1.2483 H       1  UNL1        0.0000
     44 H           7.9277    1.8569    0.5697 H       1  UNL1        0.0000
     45 H           8.9107   -1.0452    0.7335 H       1  UNL1        0.0000
     46 H           7.7265   -3.3833    0.5582 H       1  UNL1        0.0000
@<TRIPOS>BOND
     1     1     2    1
     2     2     3    2
     3     3     4   ar
     4     4     5   ar
     5     5     6   ar
     6     6     7   ar
     7     7     8   ar
     8     8     9   ar
     9     9    10   ar
    10    10    11   ar
    11    11    12   ar
    12    12    13   ar
    13    13    14   ar
    14    14    15   ar
    15    15    16   ar
    16    16    17   ar
    17    17    18   ar
    18    18    19   ar
    19    19    20   ar
    20    20    21   ar
    21    21    22   ar
    22    22    23    2
    23    18    24    1
    24    24    25   ar
    25    25    26   ar
    26    26    27   ar
    27    27    28   ar
    28    28    29   ar
    29    29    30   ar
    30    30    31   ar
    31    23     1    1
    32    31    24   ar
    33    22     3   ar
    34    31    27   ar
    35    12     4   ar
    36    21    13   ar
    37    11     7   ar
    38    20    16   ar
    39     1    32    1
    40     1    33    1
    41     2    34    1
    42     5    35    1
    43     6    36    1
    44     8    37    1
    45     9    38    1
    46    10    39    1
    47    14    40    1
    48    15    41    1
    49    17    42    1
    50    23    43    1
    51    26    44    1
    52    28    45    1
    53    29    46    1
