@<TRIPOS>MOLECULE
*****
 46 53 0 0 0
SMALL
GASTEIGER

@<TRIPOS>ATOM
      1 SI         -0.2937   -3.9823   -0.2510 Si      1  UNL1        0.0000
      2 C          -1.9835   -3.2238   -0.1380 C.2     1  UNL1        0.0000
      3 C          -1.9353   -1.8769   -0.0377 C.ar    1  UNL1        0.0000
      4 C          -3.1275   -0.9886    0.0807 C.ar    1  UNL1        0.0000
      5 C          -4.4640   -1.5444   -0.0268 C.ar    1  UNL1        0.0000
      6 C          -5.6567   -0.7938   -0.0252 C.ar    1  UNL1        0.0000
      7 C          -5.3695    0.5559    0.0420 C.ar    1  UNL1        0.0000
      8 C          -6.3129    1.5469   -0.0339 C.ar    1  UNL1        0.0000
      9 N          -5.6321    2.7391   -0.0144 N.ar    1  UNL1        0.0000
     10 C          -4.2724    2.5076    0.0630 C.ar    1  UNL1        0.0000
     11 C          -4.0692    1.1482    0.1600 C.ar    1  UNL1        0.0000
     12 C          -2.8605    0.4199    0.2493 C.ar    1  UNL1        0.0000
     13 C          -1.4926    0.9591    0.4173 C.ar    1  UNL1        0.0000
     14 C          -1.2196    2.2454    0.8861 C.ar    1  UNL1        0.0000
     15 N          -0.0131    2.8530    0.9760 N.ar    1  UNL1        0.0000
     16 C           1.0245    2.1013    0.5553 C.ar    1  UNL1        0.0000
     17 C           2.3864    2.4683    0.4677 C.ar    1  UNL1        0.0000
     18 C           3.0834    1.3768   -0.0075 C.ar    1  UNL1        0.0000
     19 N           2.1600    0.3786   -0.2171 N.ar    1  UNL1        0.0000
     20 C           0.8941    0.7760    0.1479 C.ar    1  UNL1        0.0000
     21 C          -0.3649    0.1455    0.1491 C.ar    1  UNL1        0.0000
     22 C          -0.5567   -1.3108   -0.0435 C.ar    1  UNL1        0.0000
     23 C           0.4085   -2.2547   -0.1136 C.2     1  UNL1        0.0000
     24 C           4.4767    1.2165   -0.2971 C.ar    1  UNL1        0.0000
     25 S           5.4432    2.5230   -0.8846 S.2     1  UNL1        0.0000
     26 C           6.8645    1.5591   -1.0065 C.ar    1  UNL1        0.0000
     27 C           6.6095    0.2840   -0.5924 C.ar    1  UNL1        0.0000
     28 S           7.6893   -1.1525   -0.4766 S.2     1  UNL1        0.0000
     29 C           6.2721   -1.9754    0.1580 C.ar    1  UNL1        0.0000
     30 C           5.1023   -1.2123    0.2534 C.ar    1  UNL1        0.0000
     31 C           5.2790    0.1251   -0.2011 C.ar    1  UNL1        0.0000
     32 H           0.0511   -4.8171    0.9241 H       1  UNL1        0.0000
     33 H          -0.0149   -4.5897   -1.5739 H       1  UNL1        0.0000
     34 H          -2.8471   -3.8664   -0.1479 H       1  UNL1        0.0000
     35 H          -4.5860   -2.6202   -0.1368 H       1  UNL1        0.0000
     36 H          -6.6393   -1.2320   -0.1218 H       1  UNL1        0.0000
     37 H          -7.3902    1.5234   -0.1273 H       1  UNL1        0.0000
     38 H          -6.0588    3.6537   -0.0900 H       1  UNL1        0.0000
     39 H          -3.6075    3.3566    0.0105 H       1  UNL1        0.0000
     40 H          -2.0123    2.8771    1.2716 H       1  UNL1        0.0000
     41 H           2.7991    3.4330    0.7286 H       1  UNL1        0.0000
     42 H           2.3795   -0.4970   -0.6631 H       1  UNL1        0.0000
     43 H           1.4740   -2.1589   -0.0495 H       1  UNL1        0.0000
     44 H           7.8059    1.9564   -1.3599 H       1  UNL1        0.0000
     45 H           6.3938   -3.0119    0.4424 H       1  UNL1        0.0000
     46 H           4.1837   -1.6209    0.6543 H       1  UNL1        0.0000
@<TRIPOS>BOND
     1     1     2    1
     2     2     3    2
     3     3     4   ar
     4     4     5   ar
     5     5     6   ar
     6     6     7   ar
     7     7     8   ar
     8     8     9   ar
     9     9    10   ar
    10    10    11   ar
    11    11    12   ar
    12    12    13   ar
    13    13    14   ar
    14    14    15   ar
    15    15    16   ar
    16    16    17   ar
    17    17    18   ar
    18    18    19   ar
    19    19    20   ar
    20    20    21   ar
    21    21    22   ar
    22    22    23    2
    23    18    24    1
    24    24    25   ar
    25    25    26   ar
    26    26    27   ar
    27    27    28   ar
    28    28    29   ar
    29    29    30   ar
    30    30    31   ar
    31    23     1    1
    32    31    24   ar
    33    22     3   ar
    34    31    27   ar
    35    12     4   ar
    36    21    13   ar
    37    11     7   ar
    38    20    16   ar
    39     1    32    1
    40     1    33    1
    41     2    34    1
    42     5    35    1
    43     6    36    1
    44     8    37    1
    45     9    38    1
    46    10    39    1
    47    14    40    1
    48    17    41    1
    49    19    42    1
    50    23    43    1
    51    26    44    1
    52    29    45    1
    53    30    46    1
