@<TRIPOS>MOLECULE
*****
 43 49 0 0 0
SMALL
GASTEIGER

@<TRIPOS>ATOM
      1 SI         -1.6738    4.0820    2.0734 Si      1  UNL1        0.0000
      2 C          -2.8150    2.7033    1.5498 C.2     1  UNL1        0.0000
      3 C          -2.1501    1.7041    0.9286 C.ar    1  UNL1        0.0000
      4 C          -2.7871    0.5136    0.2949 C.ar    1  UNL1        0.0000
      5 C          -4.2342    0.4084    0.2111 C.ar    1  UNL1        0.0000
      6 C          -4.9340   -0.5543   -0.5483 C.ar    1  UNL1        0.0000
      7 C          -4.0358   -1.3316   -1.2551 C.ar    1  UNL1        0.0000
      8 C          -4.3577   -2.2642   -2.2036 C.ar    1  UNL1        0.0000
      9 O          -3.2121   -2.7437   -2.7701 O.2     1  UNL1        0.0000
     10 C          -2.1618   -2.1089   -2.1664 C.ar    1  UNL1        0.0000
     11 C          -2.6100   -1.2740   -1.1710 C.ar    1  UNL1        0.0000
     12 C          -1.8823   -0.4217   -0.3237 C.ar    1  UNL1        0.0000
     13 C          -0.4307   -0.3442   -0.1488 C.ar    1  UNL1        0.0000
     14 C           0.5145   -1.3810   -0.2707 C.ar    1  UNL1        0.0000
     15 C           0.2773   -2.7351   -0.3427 C.ar    1  UNL1        0.0000
     16 N           1.4912   -3.3790   -0.4100 N.ar    1  UNL1        0.0000
     17 C           2.5135   -2.4670   -0.2959 C.ar    1  UNL1        0.0000
     18 C           1.9432   -1.2208   -0.1757 C.ar    1  UNL1        0.0000
     19 C           2.5962   -0.0124    0.0805 C.ar    1  UNL1        0.0000
     20 C           1.6572    1.0100    0.3594 C.ar    1  UNL1        0.0000
     21 C           0.2197    0.8566    0.3010 C.ar    1  UNL1        0.0000
     22 C          -0.6793    1.9205    0.8372 C.ar    1  UNL1        0.0000
     23 C          -0.2644    3.0961    1.3592 C.2     1  UNL1        0.0000
     24 C           4.0303    0.1684    0.1321 C.ar    1  UNL1        0.0000
     25 C           5.1155   -0.4083   -0.4991 C.ar    1  UNL1        0.0000
     26 C           6.2728    0.2419   -0.0046 C.ar    1  UNL1        0.0000
     27 C           5.8262    1.1826    0.8910 C.ar    1  UNL1        0.0000
     28 O           4.4722    1.1524    0.9751 O.2     1  UNL1        0.0000
     29 H          -1.5897    4.2184    3.5474 H       1  UNL1        0.0000
     30 H          -1.9285    5.3391    1.3295 H       1  UNL1        0.0000
     31 H          -3.8721    2.8010    1.7272 H       1  UNL1        0.0000
     32 H          -4.8482    1.1395    0.7346 H       1  UNL1        0.0000
     33 H          -6.0112   -0.5937   -0.6195 H       1  UNL1        0.0000
     34 H          -5.2793   -2.6558   -2.6099 H       1  UNL1        0.0000
     35 H          -1.1927   -2.3565   -2.5746 H       1  UNL1        0.0000
     36 H          -0.6319   -3.3197   -0.3244 H       1  UNL1        0.0000
     37 H           1.6116   -4.3823   -0.4664 H       1  UNL1        0.0000
     38 H           3.5375   -2.8102   -0.2575 H       1  UNL1        0.0000
     39 H           2.0684    1.9720    0.6611 H       1  UNL1        0.0000
     40 H           0.7391    3.4772    1.4437 H       1  UNL1        0.0000
     41 H           5.0771   -1.1937   -1.2399 H       1  UNL1        0.0000
     42 H           7.3023    0.0536   -0.2736 H       1  UNL1        0.0000
     43 H           6.3161    1.9169    1.5149 H       1  UNL1        0.0000
@<TRIPOS>BOND
     1     1     2    1
     2     2     3    2
     3     3     4   ar
     4     4     5   ar
     5     5     6   ar
     6     6     7   ar
     7     7     8   ar
     8     8     9   ar
     9     9    10   ar
    10    10    11   ar
    11    11    12   ar
    12    12    13   ar
    13    13    14   ar
    14    14    15   ar
    15    15    16   ar
    16    16    17   ar
    17    17    18   ar
    18    18    19   ar
    19    19    20   ar
    20    20    21   ar
    21    21    22   ar
    22    22    23    2
    23    19    24    1
    24    24    25   ar
    25    25    26   ar
    26    26    27   ar
    27    27    28   ar
    28    23     1    1
    29    28    24   ar
    30    22     3   ar
    31    12     4   ar
    32    21    13   ar
    33    11     7   ar
    34    18    14   ar
    35     1    29    1
    36     1    30    1
    37     2    31    1
    38     5    32    1
    39     6    33    1
    40     8    34    1
    41    10    35    1
    42    15    36    1
    43    16    37    1
    44    17    38    1
    45    20    39    1
    46    23    40    1
    47    25    41    1
    48    26    42    1
    49    27    43    1
