@<TRIPOS>MOLECULE
*****
 49 56 0 0 0
SMALL
GASTEIGER

@<TRIPOS>ATOM
      1 SI         -1.8781    4.1526    1.5668 Si      1  UNL1        0.0000
      2 C          -3.2641    3.0267    1.0491 C.2     1  UNL1        0.0000
      3 C          -2.8102    1.8689    0.5212 C.ar    1  UNL1        0.0000
      4 C          -3.6821    0.7455    0.0873 C.ar    1  UNL1        0.0000
      5 C          -5.1114    0.9388   -0.0871 C.ar    1  UNL1        0.0000
      6 C          -5.9991   -0.0207   -0.6192 C.ar    1  UNL1        0.0000
      7 C          -5.2928   -1.1418   -1.0122 C.ar    1  UNL1        0.0000
      8 C          -5.8087   -2.2126   -1.6901 C.ar    1  UNL1        0.0000
      9 O          -4.7966   -3.0680   -2.0147 O.2     1  UNL1        0.0000
     10 C          -3.6351   -2.5305   -1.5322 C.ar    1  UNL1        0.0000
     11 C          -3.8909   -1.3695   -0.8420 C.ar    1  UNL1        0.0000
     12 C          -2.9993   -0.4838   -0.2103 C.ar    1  UNL1        0.0000
     13 C          -1.5582   -0.6455   -0.0224 C.ar    1  UNL1        0.0000
     14 C          -0.8442   -1.8348    0.1571 C.ar    1  UNL1        0.0000
     15 C          -1.3171   -3.0808    0.4900 C.ar    1  UNL1        0.0000
     16 O          -0.2845   -3.9693    0.5833 O.2     1  UNL1        0.0000
     17 C           0.8692   -3.2769    0.3589 C.ar    1  UNL1        0.0000
     18 C           0.5776   -1.9549    0.1393 C.ar    1  UNL1        0.0000
     19 C           1.4835   -0.8992   -0.0814 C.ar    1  UNL1        0.0000
     20 C           2.8862   -1.0202   -0.2066 C.ar    1  UNL1        0.0000
     21 C           3.6313    0.1227   -0.4471 C.ar    1  UNL1        0.0000
     22 N           3.0424    1.3300   -0.5692 N.ar    1  UNL1        0.0000
     23 C           1.6881    1.4079   -0.4352 C.ar    1  UNL1        0.0000
     24 C           0.8103    0.3537   -0.1478 C.ar    1  UNL1        0.0000
     25 C          -0.6525    0.4763    0.0345 C.ar    1  UNL1        0.0000
     26 C          -1.3229    1.7579    0.4564 C.ar    1  UNL1        0.0000
     27 C          -0.6961    2.8144    1.0224 C.2     1  UNL1        0.0000
     28 C           5.0859    0.0795   -0.5891 C.2     1  UNL1        0.0000
     29 C           5.8772   -0.9675   -0.9173 C.2     1  UNL1        0.0000
     30 C           7.3048   -0.6915   -0.9754 C.2     1  UNL1        0.0000
     31 C           7.6556    0.5766   -0.7003 C.2     1  UNL1        0.0000
     32 SI          6.1399    1.6335   -0.3192 Si      1  UNL1        0.0000
     33 H          -1.7847    5.3666    0.7218 H       1  UNL1        0.0000
     34 H          -1.8439    4.3778    3.0312 H       1  UNL1        0.0000
     35 H          -4.2821    3.3281    1.2297 H       1  UNL1        0.0000
     36 H          -5.5504    1.9010    0.1736 H       1  UNL1        0.0000
     37 H          -7.0555    0.1546   -0.7627 H       1  UNL1        0.0000
     38 H          -6.7907   -2.4955   -2.0417 H       1  UNL1        0.0000
     39 H          -2.7479   -3.0919   -1.7876 H       1  UNL1        0.0000
     40 H          -2.2924   -3.4977    0.7002 H       1  UNL1        0.0000
     41 H           1.7761   -3.8617    0.4199 H       1  UNL1        0.0000
     42 H           3.3644   -1.9880   -0.1170 H       1  UNL1        0.0000
     43 H           1.3133    2.4095   -0.6292 H       1  UNL1        0.0000
     44 H           0.3483    2.9449    1.2479 H       1  UNL1        0.0000
     45 H           5.5199   -1.9649   -1.1413 H       1  UNL1        0.0000
     46 H           8.0136   -1.4710   -1.2270 H       1  UNL1        0.0000
     47 H           8.6500    0.9932   -0.6885 H       1  UNL1        0.0000
     48 H           5.9799    2.6848   -1.3566 H       1  UNL1        0.0000
     49 H           6.1742    2.0927    1.0939 H       1  UNL1        0.0000
@<TRIPOS>BOND
     1     1     2    1
     2     2     3    2
     3     3     4   ar
     4     4     5   ar
     5     5     6   ar
     6     6     7   ar
     7     7     8   ar
     8     8     9   ar
     9     9    10   ar
    10    10    11   ar
    11    11    12   ar
    12    12    13   ar
    13    13    14   ar
    14    14    15   ar
    15    15    16   ar
    16    16    17   ar
    17    17    18   ar
    18    18    19   ar
    19    19    20   ar
    20    20    21   ar
    21    21    22   ar
    22    22    23   ar
    23    23    24   ar
    24    24    25   ar
    25    25    26   ar
    26    26    27    2
    27    21    28    1
    28    28    29    2
    29    29    30    1
    30    30    31    2
    31    31    32    1
    32    27     1    1
    33    32    28    1
    34    26     3   ar
    35    12     4   ar
    36    25    13   ar
    37    11     7   ar
    38    18    14   ar
    39    24    19   ar
    40     1    33    1
    41     1    34    1
    42     2    35    1
    43     5    36    1
    44     6    37    1
    45     8    38    1
    46    10    39    1
    47    15    40    1
    48    17    41    1
    49    20    42    1
    50    23    43    1
    51    27    44    1
    52    29    45    1
    53    30    46    1
    54    31    47    1
    55    32    48    1
    56    32    49    1
