@<TRIPOS>MOLECULE
*****
 43 49 0 0 0
SMALL
GASTEIGER

@<TRIPOS>ATOM
      1 SI          1.2031    2.8939   -3.1887 Si      1  UNL1        0.0000
      2 C           2.6807    1.9759   -2.5364 C.2     1  UNL1        0.0000
      3 C           2.3571    1.1329   -1.5306 C.ar    1  UNL1        0.0000
      4 C           3.3499    0.3796   -0.7157 C.ar    1  UNL1        0.0000
      5 C           4.7624    0.4863   -0.9967 C.ar    1  UNL1        0.0000
      6 C           5.7861   -0.0397   -0.1866 C.ar    1  UNL1        0.0000
      7 C           5.2720   -0.6184    0.9655 C.ar    1  UNL1        0.0000
      8 C           6.1036   -1.1000    1.9466 C.ar    1  UNL1        0.0000
      9 S           5.2089   -1.6557    3.2959 S.2     1  UNL1        0.0000
     10 C           3.7120   -1.2420    2.5561 C.ar    1  UNL1        0.0000
     11 C           3.8636   -0.7661    1.2709 C.ar    1  UNL1        0.0000
     12 C           2.8200   -0.3567    0.3987 C.ar    1  UNL1        0.0000
     13 C           1.3680   -0.6148    0.5524 C.ar    1  UNL1        0.0000
     14 C           0.8746   -1.6740    1.3089 C.ar    1  UNL1        0.0000
     15 N          -0.4148   -1.9779    1.5408 N.ar    1  UNL1        0.0000
     16 C          -1.3222   -1.1918    0.9170 C.ar    1  UNL1        0.0000
     17 C          -2.7285   -1.3671    1.0639 C.ar    1  UNL1        0.0000
     18 C          -3.4643   -0.4899    0.3005 C.ar    1  UNL1        0.0000
     19 S          -2.4283    0.5368   -0.5824 S.2     1  UNL1        0.0000
     20 C          -0.9729   -0.1517    0.0481 C.ar    1  UNL1        0.0000
     21 C           0.4046    0.1366   -0.1725 C.ar    1  UNL1        0.0000
     22 C           0.9023    1.0998   -1.1960 C.ar    1  UNL1        0.0000
     23 C           0.1809    1.9761   -1.9289 C.2     1  UNL1        0.0000
     24 C          -4.9229   -0.3588    0.2033 C.ar    1  UNL1        0.0000
     25 C          -5.7324   -0.5184    1.3340 C.ar    1  UNL1        0.0000
     26 C          -7.1178   -0.4003    1.2279 C.ar    1  UNL1        0.0000
     27 C          -7.6612   -0.1274   -0.0154 C.ar    1  UNL1        0.0000
     28 N          -6.9241    0.0293   -1.1339 N.ar    1  UNL1        0.0000
     29 C          -5.5791   -0.0911   -0.9982 C.ar    1  UNL1        0.0000
     30 H           1.2738    4.3492   -2.9159 H       1  UNL1        0.0000
     31 H           0.8679    2.5144   -4.5819 H       1  UNL1        0.0000
     32 H           3.6526    2.2070   -2.9372 H       1  UNL1        0.0000
     33 H           5.0912    1.0241   -1.8843 H       1  UNL1        0.0000
     34 H           6.8360    0.0724   -0.4230 H       1  UNL1        0.0000
     35 H           7.1846   -1.1323    1.9650 H       1  UNL1        0.0000
     36 H           2.8196   -1.3678    3.1505 H       1  UNL1        0.0000
     37 H           1.5433   -2.4008    1.7614 H       1  UNL1        0.0000
     38 H          -3.1636   -2.1288    1.6981 H       1  UNL1        0.0000
     39 H          -0.8692    2.1941   -1.9066 H       1  UNL1        0.0000
     40 H          -5.2940   -0.7237    2.3076 H       1  UNL1        0.0000
     41 H          -7.7563   -0.5165    2.0966 H       1  UNL1        0.0000
     42 H          -8.7345   -0.0254   -0.1486 H       1  UNL1        0.0000
     43 H          -5.0325    0.0288   -1.9301 H       1  UNL1        0.0000
@<TRIPOS>BOND
     1     1     2    1
     2     2     3    2
     3     3     4   ar
     4     4     5   ar
     5     5     6   ar
     6     6     7   ar
     7     7     8   ar
     8     8     9   ar
     9     9    10   ar
    10    10    11   ar
    11    11    12   ar
    12    12    13   ar
    13    13    14   ar
    14    14    15   ar
    15    15    16   ar
    16    16    17   ar
    17    17    18   ar
    18    18    19   ar
    19    19    20   ar
    20    20    21   ar
    21    21    22   ar
    22    22    23    2
    23    18    24    1
    24    24    25   ar
    25    25    26   ar
    26    26    27   ar
    27    27    28   ar
    28    28    29   ar
    29    23     1    1
    30    29    24   ar
    31    22     3   ar
    32    12     4   ar
    33    21    13   ar
    34    11     7   ar
    35    20    16   ar
    36     1    30    1
    37     1    31    1
    38     2    32    1
    39     5    33    1
    40     6    34    1
    41     8    35    1
    42    10    36    1
    43    14    37    1
    44    17    38    1
    45    23    39    1
    46    25    40    1
    47    26    41    1
    48    27    42    1
    49    29    43    1
