@<TRIPOS>MOLECULE
*****
 45 52 0 0 0
SMALL
GASTEIGER

@<TRIPOS>ATOM
      1 SI          3.3345   -3.7621    0.6417 Si      1  UNL1        0.0000
      2 C           4.3610   -2.2848    0.1660 C.2     1  UNL1        0.0000
      3 C           3.6064   -1.1878   -0.0735 C.ar    1  UNL1        0.0000
      4 C           4.1467    0.1345   -0.4712 C.ar    1  UNL1        0.0000
      5 C           5.5599    0.3010   -0.6222 C.ar    1  UNL1        0.0000
      6 C           6.1805    1.4970   -0.9922 C.ar    1  UNL1        0.0000
      7 C           5.3146    2.5775   -1.2195 C.ar    1  UNL1        0.0000
      8 N           5.7228    3.8030   -1.5817 N.ar    1  UNL1        0.0000
      9 S           4.3625    4.7261   -1.7295 S.2     1  UNL1        0.0000
     10 N           3.2060    3.6151   -1.3421 N.ar    1  UNL1        0.0000
     11 C           3.8090    2.4417   -1.0699 C.ar    1  UNL1        0.0000
     12 C           3.1979    1.1900   -0.6854 C.ar    1  UNL1        0.0000
     13 C           1.7152    0.9825   -0.5178 C.ar    1  UNL1        0.0000
     14 C           0.7925    2.0215   -0.7291 C.ar    1  UNL1        0.0000
     15 C          -0.5796    1.8499   -0.5793 C.ar    1  UNL1        0.0000
     16 C          -1.1009    0.6184   -0.2069 C.ar    1  UNL1        0.0000
     17 C          -2.4965    0.4790   -0.0638 C.ar    1  UNL1        0.0000
     18 C          -3.0791   -0.7298    0.3073 C.ar    1  UNL1        0.0000
     19 C          -2.1728   -1.7553    0.5163 C.ar    1  UNL1        0.0000
     20 N          -0.8236   -1.6472    0.3851 N.ar    1  UNL1        0.0000
     21 C          -0.2473   -0.4758    0.0246 C.ar    1  UNL1        0.0000
     22 C           1.1675   -0.2882   -0.1330 C.ar    1  UNL1        0.0000
     23 C           2.1490   -1.4023    0.0939 C.ar    1  UNL1        0.0000
     24 C           1.8509   -2.6703    0.4583 C.2     1  UNL1        0.0000
     25 C          -4.5381   -0.8842    0.4592 C.ar    1  UNL1        0.0000
     26 S          -5.2431   -2.4286    0.9297 S.2     1  UNL1        0.0000
     27 C          -6.8677   -1.8558    0.8977 C.ar    1  UNL1        0.0000
     28 C          -6.8305   -0.5616    0.5452 C.ar    1  UNL1        0.0000
     29 O          -7.9116    0.2526    0.4068 O.2     1  UNL1        0.0000
     30 C          -7.2756    1.4210    0.0431 C.ar    1  UNL1        0.0000
     31 C          -5.8816    1.3129   -0.0330 C.ar    1  UNL1        0.0000
     32 C          -5.5849   -0.0265    0.3065 C.ar    1  UNL1        0.0000
     33 H           3.4033   -4.8385   -0.3759 H       1  UNL1        0.0000
     34 H           3.5844   -4.1864    2.0404 H       1  UNL1        0.0000
     35 H           5.4294   -2.4017    0.1171 H       1  UNL1        0.0000
     36 H           6.2297   -0.5385   -0.4453 H       1  UNL1        0.0000
     37 H           7.2544    1.5879   -1.0972 H       1  UNL1        0.0000
     38 H           1.0968    3.0190   -1.0218 H       1  UNL1        0.0000
     39 H          -1.2305    2.7031   -0.7609 H       1  UNL1        0.0000
     40 H          -3.1199    1.3463   -0.2513 H       1  UNL1        0.0000
     41 H          -2.4838   -2.7538    0.8100 H       1  UNL1        0.0000
     42 H           0.8854   -3.1051    0.6480 H       1  UNL1        0.0000
     43 H          -7.7296   -2.4650    1.1274 H       1  UNL1        0.0000
     44 H          -7.9483    2.2510   -0.1304 H       1  UNL1        0.0000
     45 H          -5.2151    2.1184   -0.3010 H       1  UNL1        0.0000
@<TRIPOS>BOND
     1     1     2    1
     2     2     3    2
     3     3     4   ar
     4     4     5   ar
     5     5     6   ar
     6     6     7   ar
     7     7     8   ar
     8     8     9   ar
     9     9    10   ar
    10    10    11   ar
    11    11    12   ar
    12    12    13   ar
    13    13    14   ar
    14    14    15   ar
    15    15    16   ar
    16    16    17   ar
    17    17    18   ar
    18    18    19   ar
    19    19    20   ar
    20    20    21   ar
    21    21    22   ar
    22    22    23   ar
    23    23    24    2
    24    18    25    1
    25    25    26   ar
    26    26    27   ar
    27    27    28   ar
    28    28    29   ar
    29    29    30   ar
    30    30    31   ar
    31    31    32   ar
    32    24     1    1
    33    32    25   ar
    34    23     3   ar
    35    32    28   ar
    36    12     4   ar
    37    22    13   ar
    38    11     7   ar
    39    21    16   ar
    40     1    33    1
    41     1    34    1
    42     2    35    1
    43     5    36    1
    44     6    37    1
    45    14    38    1
    46    15    39    1
    47    17    40    1
    48    19    41    1
    49    24    42    1
    50    27    43    1
    51    30    44    1
    52    31    45    1
