@<TRIPOS>MOLECULE
*****
 45 52 0 0 0
SMALL
GASTEIGER

@<TRIPOS>ATOM
      1 SI         -3.0782    2.4642   -2.9873 Si      1  UNL1        0.0000
      2 C          -4.1739    1.6691   -1.7009 C.2     1  UNL1        0.0000
      3 C          -3.4673    0.8985   -0.8449 C.ar    1  UNL1        0.0000
      4 C          -4.0662   -0.0245    0.1514 C.ar    1  UNL1        0.0000
      5 C          -5.4563    0.0415    0.4588 C.ar    1  UNL1        0.0000
      6 C          -6.1039   -0.8396    1.3341 C.ar    1  UNL1        0.0000
      7 C          -5.2937   -1.8305    1.9226 C.ar    1  UNL1        0.0000
      8 N          -5.7381   -2.7632    2.7788 N.ar    1  UNL1        0.0000
      9 S          -4.4228   -3.6751    3.1996 S.2     1  UNL1        0.0000
     10 N          -3.2432   -2.9281    2.3208 N.ar    1  UNL1        0.0000
     11 C          -3.8074   -1.9178    1.6318 C.ar    1  UNL1        0.0000
     12 C          -3.1788   -0.9888    0.7335 C.ar    1  UNL1        0.0000
     13 C          -1.7145   -0.9635    0.4818 C.ar    1  UNL1        0.0000
     14 N          -0.9894   -1.9450    1.0619 N.ar    1  UNL1        0.0000
     15 C           0.3538   -1.8923    1.0017 C.ar    1  UNL1        0.0000
     16 C           1.0804   -0.8487    0.4543 C.ar    1  UNL1        0.0000
     17 C           2.4994   -0.8890    0.5406 C.ar    1  UNL1        0.0000
     18 C           3.3625    0.1375    0.1073 C.ar    1  UNL1        0.0000
     19 C           4.8216    0.0455    0.2081 C.ar    1  UNL1        0.0000
     20 C           5.5161   -1.0836   -0.2497 C.ar    1  UNL1        0.0000
     21 C           6.9028   -1.1611   -0.1257 C.ar    1  UNL1        0.0000
     22 C           7.5693   -0.1018    0.4630 C.ar    1  UNL1        0.0000
     23 N           6.9509    1.0036    0.9231 N.ar    1  UNL1        0.0000
     24 C           5.6024    1.0526    0.7799 C.ar    1  UNL1        0.0000
     25 C           2.6946    1.2844   -0.3982 C.ar    1  UNL1        0.0000
     26 N           3.2868    2.4139   -0.8253 N.ar    1  UNL1        0.0000
     27 S           2.0898    3.4717   -1.2345 S.2     1  UNL1        0.0000
     28 N           0.7607    2.5477   -0.9236 N.ar    1  UNL1        0.0000
     29 C           1.1760    1.3363   -0.5112 C.ar    1  UNL1        0.0000
     30 C           0.3333    0.2080   -0.1425 C.ar    1  UNL1        0.0000
     31 C          -1.0960    0.0742   -0.2474 C.ar    1  UNL1        0.0000
     32 C          -2.0039    0.9010   -1.0831 C.ar    1  UNL1        0.0000
     33 C          -1.6539    1.5505   -2.2137 C.2     1  UNL1        0.0000
     34 H          -2.9916    3.9347   -2.8215 H       1  UNL1        0.0000
     35 H          -3.3891    1.9846   -4.3553 H       1  UNL1        0.0000
     36 H          -5.2413    1.7904   -1.7774 H       1  UNL1        0.0000
     37 H          -6.0767    0.8111    0.0017 H       1  UNL1        0.0000
     38 H          -7.1637   -0.7704    1.5472 H       1  UNL1        0.0000
     39 H           0.8405   -2.7428    1.4750 H       1  UNL1        0.0000
     40 H           2.9609   -1.7675    1.0012 H       1  UNL1        0.0000
     41 H           4.9850   -1.9082   -0.7197 H       1  UNL1        0.0000
     42 H           7.4488   -2.0271   -0.4829 H       1  UNL1        0.0000
     43 H           8.6487   -0.1137    0.5827 H       1  UNL1        0.0000
     44 H           5.1525    1.9636    1.1683 H       1  UNL1        0.0000
     45 H          -0.6866    1.5974   -2.6843 H       1  UNL1        0.0000
@<TRIPOS>BOND
     1     1     2    1
     2     2     3    2
     3     3     4   ar
     4     4     5   ar
     5     5     6   ar
     6     6     7   ar
     7     7     8   ar
     8     8     9   ar
     9     9    10   ar
    10    10    11   ar
    11    11    12   ar
    12    12    13   ar
    13    13    14   ar
    14    14    15   ar
    15    15    16   ar
    16    16    17   ar
    17    17    18   ar
    18    18    19    1
    19    19    20   ar
    20    20    21   ar
    21    21    22   ar
    22    22    23   ar
    23    23    24   ar
    24    18    25   ar
    25    25    26   ar
    26    26    27   ar
    27    27    28   ar
    28    28    29   ar
    29    29    30   ar
    30    30    31   ar
    31    31    32   ar
    32    32    33    2
    33    33     1    1
    34    32     3   ar
    35    12     4   ar
    36    31    13   ar
    37    11     7   ar
    38    30    16   ar
    39    24    19   ar
    40    29    25   ar
    41     1    34    1
    42     1    35    1
    43     2    36    1
    44     5    37    1
    45     6    38    1
    46    15    39    1
    47    17    40    1
    48    20    41    1
    49    21    42    1
    50    22    43    1
    51    24    44    1
    52    33    45    1
