@<TRIPOS>MOLECULE
*****
 47 54 0 0 0
SMALL
GASTEIGER

@<TRIPOS>ATOM
      1 SI         -1.9405   -4.3778   -0.3698 Si      1  UNL1        0.0000
      2 C          -3.4117   -3.2953   -0.0542 C.2     1  UNL1        0.0000
      3 C          -3.0745   -1.9893    0.0317 C.ar    1  UNL1        0.0000
      4 C          -4.0490   -0.8932    0.2186 C.ar    1  UNL1        0.0000
      5 C          -5.3929   -1.1494    0.5611 C.ar    1  UNL1        0.0000
      6 C          -6.2810   -0.1108    0.8232 C.ar    1  UNL1        0.0000
      7 C          -5.8269    1.1957    0.7815 C.ar    1  UNL1        0.0000
      8 C          -4.4957    1.4596    0.4448 C.ar    1  UNL1        0.0000
      9 C          -3.5838    0.4390    0.0999 C.ar    1  UNL1        0.0000
     10 C          -2.1625    0.7132   -0.2452 C.ar    1  UNL1        0.0000
     11 C          -1.6325    1.9676   -0.6317 C.ar    1  UNL1        0.0000
     12 C          -2.2760    3.1035   -1.0642 C.ar    1  UNL1        0.0000
     13 O          -1.3754    4.0967   -1.3309 O.2     1  UNL1        0.0000
     14 C          -0.1303    3.5872   -1.1081 C.ar    1  UNL1        0.0000
     15 C          -0.2397    2.2793   -0.7197 C.ar    1  UNL1        0.0000
     16 C           0.7779    1.3893   -0.4380 C.ar    1  UNL1        0.0000
     17 C           2.2095    1.6582   -0.4073 C.2     1  UNL1        0.0000
     18 C           2.9575    0.5861   -0.0638 C.2     1  UNL1        0.0000
     19 SI          1.8713   -0.9212    0.2350 Si      1  UNL1        0.0000
     20 C           0.2898    0.0707   -0.1667 C.ar    1  UNL1        0.0000
     21 C          -1.1144   -0.2962   -0.1588 C.ar    1  UNL1        0.0000
     22 C          -1.6221   -1.7072   -0.1292 C.ar    1  UNL1        0.0000
     23 C          -0.9093   -2.8224   -0.4027 C.2     1  UNL1        0.0000
     24 C           4.4161    0.6115    0.0416 C.ar    1  UNL1        0.0000
     25 N           5.0478    1.8029   -0.2496 N.ar    1  UNL1        0.0000
     26 C           6.4072    1.9445   -0.1839 C.ar    1  UNL1        0.0000
     27 C           7.3348    0.9743    0.1663 C.ar    1  UNL1        0.0000
     28 C           6.7520   -0.2668    0.4764 C.ar    1  UNL1        0.0000
     29 N           7.4338   -1.3632    0.8442 N.ar    1  UNL1        0.0000
     30 S           6.3113   -2.5542    1.1001 S.2     1  UNL1        0.0000
     31 N           4.9128   -1.7371    0.7543 N.ar    1  UNL1        0.0000
     32 C           5.2548   -0.4783    0.4197 C.ar    1  UNL1        0.0000
     33 H          -1.6103   -5.2506    0.7823 H       1  UNL1        0.0000
     34 H          -1.9935   -5.0503   -1.6899 H       1  UNL1        0.0000
     35 H          -4.3915   -3.7382    0.0037 H       1  UNL1        0.0000
     36 H          -5.7649   -2.1652    0.6531 H       1  UNL1        0.0000
     37 H          -7.3112   -0.3264    1.0924 H       1  UNL1        0.0000
     38 H          -6.4964    2.0149    1.0311 H       1  UNL1        0.0000
     39 H          -4.1825    2.4959    0.5116 H       1  UNL1        0.0000
     40 H          -3.3028    3.3768   -1.2580 H       1  UNL1        0.0000
     41 H           0.6910    4.2649   -1.2927 H       1  UNL1        0.0000
     42 H           2.6106    2.6386   -0.6314 H       1  UNL1        0.0000
     43 H           1.8794   -1.3659    1.6530 H       1  UNL1        0.0000
     44 H           2.1419   -1.9771   -0.7768 H       1  UNL1        0.0000
     45 H           0.1195   -2.9325   -0.6813 H       1  UNL1        0.0000
     46 H           6.7523    2.9454   -0.4432 H       1  UNL1        0.0000
     47 H           8.3998    1.1527    0.1987 H       1  UNL1        0.0000
@<TRIPOS>BOND
     1     1     2    1
     2     2     3    2
     3     3     4   ar
     4     4     5   ar
     5     5     6   ar
     6     6     7   ar
     7     7     8   ar
     8     8     9   ar
     9     9    10   ar
    10    10    11   ar
    11    11    12   ar
    12    12    13   ar
    13    13    14   ar
    14    14    15   ar
    15    15    16   ar
    16    16    17    1
    17    17    18    2
    18    18    19    1
    19    19    20    1
    20    20    21   ar
    21    21    22   ar
    22    22    23    2
    23    18    24    1
    24    24    25   ar
    25    25    26   ar
    26    26    27   ar
    27    27    28   ar
    28    28    29   ar
    29    29    30   ar
    30    30    31   ar
    31    31    32   ar
    32    23     1    1
    33    32    24   ar
    34    22     3   ar
    35    32    28   ar
    36     9     4   ar
    37    21    10   ar
    38    15    11   ar
    39    20    16   ar
    40     1    33    1
    41     1    34    1
    42     2    35    1
    43     5    36    1
    44     6    37    1
    45     7    38    1
    46     8    39    1
    47    12    40    1
    48    14    41    1
    49    17    42    1
    50    19    43    1
    51    19    44    1
    52    23    45    1
    53    26    46    1
    54    27    47    1
