@<TRIPOS>MOLECULE
*****
 47 54 0 0 0
SMALL
GASTEIGER

@<TRIPOS>ATOM
      1 SI         -2.7854    3.6684    1.7794 Si      1  UNL1        0.0000
      2 C          -4.0646    2.3996    1.3185 C.2     1  UNL1        0.0000
      3 C          -3.5085    1.3013    0.7607 C.ar    1  UNL1        0.0000
      4 C          -4.2719    0.1399    0.2604 C.ar    1  UNL1        0.0000
      5 C          -5.6753    0.1733    0.1339 C.ar    1  UNL1        0.0000
      6 C          -6.3679   -0.8694   -0.4747 C.ar    1  UNL1        0.0000
      7 C          -5.6617   -1.9376   -1.0008 C.ar    1  UNL1        0.0000
      8 C          -4.2703   -1.9807   -0.8742 C.ar    1  UNL1        0.0000
      9 C          -3.5422   -0.9879   -0.1832 C.ar    1  UNL1        0.0000
     10 C          -2.0619   -1.0393   -0.0321 C.ar    1  UNL1        0.0000
     11 C          -1.2619   -2.2020   -0.0854 C.ar    1  UNL1        0.0000
     12 C          -1.7265   -3.4927    0.0544 C.ar    1  UNL1        0.0000
     13 S          -0.4841   -4.6642   -0.0913 S.2     1  UNL1        0.0000
     14 C           0.7164   -3.4529   -0.2354 C.ar    1  UNL1        0.0000
     15 C           0.1792   -2.1859   -0.1686 C.ar    1  UNL1        0.0000
     16 C           0.9591   -1.0014   -0.1848 C.ar    1  UNL1        0.0000
     17 C           2.3712   -0.9483   -0.3394 C.ar    1  UNL1        0.0000
     18 C           3.0585    0.2656   -0.3105 C.ar    1  UNL1        0.0000
     19 C           2.2477    1.3731   -0.1300 C.ar    1  UNL1        0.0000
     20 N           0.8941    1.3468    0.0276 N.ar    1  UNL1        0.0000
     21 C           0.2019    0.1858    0.0114 C.ar    1  UNL1        0.0000
     22 C          -1.2468    0.1433    0.1696 C.ar    1  UNL1        0.0000
     23 C          -2.0258    1.3417    0.6554 C.ar    1  UNL1        0.0000
     24 C          -1.5017    2.4838    1.1552 C.2     1  UNL1        0.0000
     25 C           4.5121    0.3237   -0.4830 C.ar    1  UNL1        0.0000
     26 N           5.1270   -0.7389   -1.1169 N.ar    1  UNL1        0.0000
     27 C           6.4796   -0.7789   -1.3273 C.ar    1  UNL1        0.0000
     28 C           7.4150    0.1765   -0.9551 C.ar    1  UNL1        0.0000
     29 C           6.8505    1.2786   -0.2895 C.ar    1  UNL1        0.0000
     30 N           7.5405    2.3302    0.1793 N.ar    1  UNL1        0.0000
     31 S           6.4362    3.3431    0.8882 S.2     1  UNL1        0.0000
     32 N           5.0342    2.4987    0.6272 N.ar    1  UNL1        0.0000
     33 C           5.3649    1.3744   -0.0354 C.ar    1  UNL1        0.0000
     34 H          -2.7136    3.8850    3.2451 H       1  UNL1        0.0000
     35 H          -2.8954    4.9007    0.9612 H       1  UNL1        0.0000
     36 H          -5.1052    2.6042    1.5040 H       1  UNL1        0.0000
     37 H          -6.2490    1.0283    0.4784 H       1  UNL1        0.0000
     38 H          -7.4488   -0.8231   -0.5738 H       1  UNL1        0.0000
     39 H          -6.1843   -2.7315   -1.5282 H       1  UNL1        0.0000
     40 H          -3.7623   -2.8012   -1.3735 H       1  UNL1        0.0000
     41 H          -2.7276   -3.8463    0.2530 H       1  UNL1        0.0000
     42 H           1.7487   -3.7584   -0.3283 H       1  UNL1        0.0000
     43 H           2.9365   -1.8654   -0.4863 H       1  UNL1        0.0000
     44 H           2.6483    2.3834   -0.1168 H       1  UNL1        0.0000
     45 H          -0.4646    2.7523    1.2597 H       1  UNL1        0.0000
     46 H           6.8123   -1.6777   -1.8469 H       1  UNL1        0.0000
     47 H           8.4732    0.0823   -1.1512 H       1  UNL1        0.0000
@<TRIPOS>BOND
     1     1     2    1
     2     2     3    2
     3     3     4   ar
     4     4     5   ar
     5     5     6   ar
     6     6     7   ar
     7     7     8   ar
     8     8     9   ar
     9     9    10   ar
    10    10    11   ar
    11    11    12   ar
    12    12    13   ar
    13    13    14   ar
    14    14    15   ar
    15    15    16   ar
    16    16    17   ar
    17    17    18   ar
    18    18    19   ar
    19    19    20   ar
    20    20    21   ar
    21    21    22   ar
    22    22    23   ar
    23    23    24    2
    24    18    25    1
    25    25    26   ar
    26    26    27   ar
    27    27    28   ar
    28    28    29   ar
    29    29    30   ar
    30    30    31   ar
    31    31    32   ar
    32    32    33   ar
    33    24     1    1
    34    33    25   ar
    35    23     3   ar
    36    33    29   ar
    37     9     4   ar
    38    22    10   ar
    39    15    11   ar
    40    21    16   ar
    41     1    34    1
    42     1    35    1
    43     2    36    1
    44     5    37    1
    45     6    38    1
    46     7    39    1
    47     8    40    1
    48    12    41    1
    49    14    42    1
    50    17    43    1
    51    19    44    1
    52    24    45    1
    53    27    46    1
    54    28    47    1
