@<TRIPOS>MOLECULE
*****
 46 52 0 0 0
SMALL
GASTEIGER

@<TRIPOS>ATOM
      1 SI         -3.9228    3.9552   -0.7209 Si      1  UNL1        0.0000
      2 C          -4.7732    2.3555   -0.2871 C.2     1  UNL1        0.0000
      3 C          -3.8895    1.3570   -0.0662 C.ar    1  UNL1        0.0000
      4 C          -4.2409   -0.0339    0.2990 C.ar    1  UNL1        0.0000
      5 C          -5.5842   -0.4348    0.4467 C.ar    1  UNL1        0.0000
      6 C          -5.9136   -1.7428    0.7904 C.ar    1  UNL1        0.0000
      7 C          -4.9044   -2.6691    0.9914 C.ar    1  UNL1        0.0000
      8 C          -3.5667   -2.2874    0.8486 C.ar    1  UNL1        0.0000
      9 C          -3.1895   -0.9698    0.5010 C.ar    1  UNL1        0.0000
     10 C          -1.7473   -0.5637    0.3478 C.ar    1  UNL1        0.0000
     11 C          -0.6891   -1.4759    0.5449 C.ar    1  UNL1        0.0000
     12 C           0.6729   -1.1016    0.4005 C.ar    1  UNL1        0.0000
     13 C           1.8201   -1.9333    0.5735 C.ar    1  UNL1        0.0000
     14 C           1.7667   -3.2663    0.9126 C.ar    1  UNL1        0.0000
     15 S           3.3316   -3.9656    1.0166 S.2     1  UNL1        0.0000
     16 C           4.0965   -2.4859    0.6059 C.ar    1  UNL1        0.0000
     17 C           3.1842   -1.4744    0.4083 C.ar    1  UNL1        0.0000
     18 C           3.5206   -0.1590    0.0574 C.ar    1  UNL1        0.0000
     19 C           2.3827    0.6632   -0.1175 C.ar    1  UNL1        0.0000
     20 C           1.0209    0.2293    0.0443 C.ar    1  UNL1        0.0000
     21 C          -0.0316    1.1320   -0.1475 C.ar    1  UNL1        0.0000
     22 C          -1.3905    0.7654   -0.0044 C.ar    1  UNL1        0.0000
     23 C          -2.4741    1.7551   -0.2170 C.ar    1  UNL1        0.0000
     24 C          -2.2991    3.0533   -0.5508 C.2     1  UNL1        0.0000
     25 C           4.8784    0.3198   -0.1109 C.ar    1  UNL1        0.0000
     26 C           5.9432    0.3550    0.7724 C.ar    1  UNL1        0.0000
     27 C           7.0487    0.9340    0.1041 C.ar    1  UNL1        0.0000
     28 C           6.6366    1.2439   -1.1709 C.ar    1  UNL1        0.0000
     29 N           5.3224    0.8752   -1.2904 N.ar    1  UNL1        0.0000
     30 H          -4.1043    4.9989    0.3164 H       1  UNL1        0.0000
     31 H          -4.1894    4.3841   -2.1150 H       1  UNL1        0.0000
     32 H          -5.8484    2.3227   -0.2399 H       1  UNL1        0.0000
     33 H          -6.3986    0.2671    0.2962 H       1  UNL1        0.0000
     34 H          -6.9548   -2.0330    0.8999 H       1  UNL1        0.0000
     35 H          -5.1505   -3.6933    1.2602 H       1  UNL1        0.0000
     36 H          -2.8292   -3.0641    1.0208 H       1  UNL1        0.0000
     37 H          -0.8942   -2.5037    0.8173 H       1  UNL1        0.0000
     38 H           0.9065   -3.8904    1.1054 H       1  UNL1        0.0000
     39 H           5.1749   -2.4516    0.5336 H       1  UNL1        0.0000
     40 H           2.5573    1.7093   -0.3768 H       1  UNL1        0.0000
     41 H           0.2191    2.1549   -0.4163 H       1  UNL1        0.0000
     42 H          -1.3804    3.5891   -0.7171 H       1  UNL1        0.0000
     43 H           5.9220    0.0037    1.7965 H       1  UNL1        0.0000
     44 H           8.0366    1.1068    0.5112 H       1  UNL1        0.0000
     45 H           7.1628    1.6943   -2.0018 H       1  UNL1        0.0000
     46 H           4.7617    0.9748   -2.1263 H       1  UNL1        0.0000
@<TRIPOS>BOND
     1     1     2    1
     2     2     3    2
     3     3     4   ar
     4     4     5   ar
     5     5     6   ar
     6     6     7   ar
     7     7     8   ar
     8     8     9   ar
     9     9    10   ar
    10    10    11   ar
    11    11    12   ar
    12    12    13   ar
    13    13    14   ar
    14    14    15   ar
    15    15    16   ar
    16    16    17   ar
    17    17    18   ar
    18    18    19   ar
    19    19    20   ar
    20    20    21   ar
    21    21    22   ar
    22    22    23   ar
    23    23    24    2
    24    18    25    1
    25    25    26   ar
    26    26    27   ar
    27    27    28   ar
    28    28    29   ar
    29    24     1    1
    30    29    25   ar
    31    23     3   ar
    32     9     4   ar
    33    22    10   ar
    34    20    12   ar
    35    17    13   ar
    36     1    30    1
    37     1    31    1
    38     2    32    1
    39     5    33    1
    40     6    34    1
    41     7    35    1
    42     8    36    1
    43    11    37    1
    44    14    38    1
    45    16    39    1
    46    19    40    1
    47    21    41    1
    48    24    42    1
    49    26    43    1
    50    27    44    1
    51    28    45    1
    52    29    46    1
