@<TRIPOS>MOLECULE
*****
 37 42 0 0 0
SMALL
GASTEIGER

@<TRIPOS>ATOM
      1 SI          0.6693   -0.3077    1.0313 Si      1  UNL1        0.0000
      2 C           1.3603    0.4009   -0.5888 C.2     1  UNL1        0.0000
      3 C           0.3768    0.6198   -1.4903 C.2     1  UNL1        0.0000
      4 C          -0.9507    0.2629   -1.0027 C.ar    1  UNL1        0.0000
      5 C          -1.0956   -0.2628    0.3218 C.ar    1  UNL1        0.0000
      6 C          -2.3482   -0.6595    0.9380 C.ar    1  UNL1        0.0000
      7 C          -2.4426   -1.1733    2.2481 C.ar    1  UNL1        0.0000
      8 C          -3.6709   -1.5470    2.8119 C.ar    1  UNL1        0.0000
      9 C          -4.8545   -1.4221    2.0886 C.ar    1  UNL1        0.0000
     10 C          -4.8240   -0.9216    0.7918 C.ar    1  UNL1        0.0000
     11 C          -3.5892   -0.5435    0.2188 C.ar    1  UNL1        0.0000
     12 C          -3.4148   -0.0204   -1.0889 C.ar    1  UNL1        0.0000
     13 C          -4.3638    0.2251   -2.0483 C.ar    1  UNL1        0.0000
     14 O          -3.7685    0.7318   -3.1721 O.2     1  UNL1        0.0000
     15 C          -2.4245    0.8107   -2.9273 C.ar    1  UNL1        0.0000
     16 C          -2.1640    0.3594   -1.6614 C.ar    1  UNL1        0.0000
     17 C           2.7485    0.6569   -0.7928 C.ar    1  UNL1        0.0000
     18 S           3.3462    1.3218   -2.3218 S.2     1  UNL1        0.0000
     19 C           5.0000    1.3453   -1.8339 C.ar    1  UNL1        0.0000
     20 C           5.0627    0.8701   -0.5781 C.ar    1  UNL1        0.0000
     21 N           6.1952    0.7272    0.1692 N.ar    1  UNL1        0.0000
     22 C           5.6764    0.2069    1.3489 C.ar    1  UNL1        0.0000
     23 C           4.2754    0.0567    1.2739 C.ar    1  UNL1        0.0000
     24 C           3.8584    0.5003   -0.0172 C.ar    1  UNL1        0.0000
     25 H           1.1214   -1.6984    1.2981 H       1  UNL1        0.0000
     26 H           0.8241    0.6176    2.1843 H       1  UNL1        0.0000
     27 H           0.5065    1.0179   -2.4870 H       1  UNL1        0.0000
     28 H          -1.5556   -1.2956    2.8649 H       1  UNL1        0.0000
     29 H          -3.6987   -1.9390    3.8263 H       1  UNL1        0.0000
     30 H          -5.8000   -1.7154    2.5373 H       1  UNL1        0.0000
     31 H          -5.7508   -0.8269    0.2339 H       1  UNL1        0.0000
     32 H          -5.4364    0.1105   -2.1086 H       1  UNL1        0.0000
     33 H          -1.8268    1.1985   -3.7398 H       1  UNL1        0.0000
     34 H           5.7943    1.6947   -2.4780 H       1  UNL1        0.0000
     35 H           7.1476    0.9499   -0.0932 H       1  UNL1        0.0000
     36 H           6.3506   -0.0209    2.1648 H       1  UNL1        0.0000
     37 H           3.6659   -0.3308    2.0780 H       1  UNL1        0.0000
@<TRIPOS>BOND
     1     1     2    1
     2     2     3    2
     3     3     4    1
     4     4     5   ar
     5     5     6   ar
     6     6     7   ar
     7     7     8   ar
     8     8     9   ar
     9     9    10   ar
    10    10    11   ar
    11    11    12   ar
    12    12    13   ar
    13    13    14   ar
    14    14    15   ar
    15    15    16   ar
    16     2    17    1
    17    17    18   ar
    18    18    19   ar
    19    19    20   ar
    20    20    21   ar
    21    21    22   ar
    22    22    23   ar
    23    23    24   ar
    24     5     1    1
    25    11     6   ar
    26    16    12   ar
    27    24    17   ar
    28    16     4   ar
    29    24    20   ar
    30     1    25    1
    31     1    26    1
    32     3    27    1
    33     7    28    1
    34     8    29    1
    35     9    30    1
    36    10    31    1
    37    13    32    1
    38    15    33    1
    39    19    34    1
    40    21    35    1
    41    22    36    1
    42    23    37    1
