@<TRIPOS>MOLECULE
*****
 44 50 0 0 0
SMALL
GASTEIGER

@<TRIPOS>ATOM
      1 SI          3.7257   -3.2893    1.9219 Si      1  UNL1        0.0000
      2 C           4.6814   -1.8072    1.3301 C.2     1  UNL1        0.0000
      3 C           3.8864   -0.9071    0.7118 C.ar    1  UNL1        0.0000
      4 C           4.3787    0.2828   -0.0160 C.ar    1  UNL1        0.0000
      5 C           5.7257    0.6884    0.0203 C.ar    1  UNL1        0.0000
      6 C           6.1670    1.7822   -0.7240 C.ar    1  UNL1        0.0000
      7 C           5.2696    2.4853   -1.5148 C.ar    1  UNL1        0.0000
      8 C           3.9282    2.1010   -1.5498 C.ar    1  UNL1        0.0000
      9 C           3.4484    1.0029   -0.8022 C.ar    1  UNL1        0.0000
     10 C           1.9994    0.6517   -0.8019 C.ar    1  UNL1        0.0000
     11 N           1.2227    1.4416   -1.5918 N.ar    1  UNL1        0.0000
     12 C          -0.1109    1.2671   -1.5482 C.ar    1  UNL1        0.0000
     13 C          -0.7561    0.3753   -0.7042 C.ar    1  UNL1        0.0000
     14 C          -2.1587    0.3087   -0.6692 C.ar    1  UNL1        0.0000
     15 C          -2.7782   -0.5428    0.2319 C.ar    1  UNL1        0.0000
     16 N          -2.0635   -1.2978    1.0916 N.ar    1  UNL1        0.0000
     17 C          -0.7089   -1.2179    1.0288 C.ar    1  UNL1        0.0000
     18 C           0.0354   -0.4383    0.1272 C.ar    1  UNL1        0.0000
     19 C           1.4617   -0.3679    0.0154 C.ar    1  UNL1        0.0000
     20 C           2.4449   -1.2665    0.6840 C.ar    1  UNL1        0.0000
     21 C           2.2001   -2.4995    1.1808 C.2     1  UNL1        0.0000
     22 C          -4.2383   -0.6660    0.3332 C.ar    1  UNL1        0.0000
     23 S          -4.9380   -2.1688    0.8450 S.2     1  UNL1        0.0000
     24 C          -6.5411   -1.5836    0.7173 C.ar    1  UNL1        0.0000
     25 C          -6.5613   -0.2820    0.2944 C.ar    1  UNL1        0.0000
     26 N          -7.7177    0.4145    0.1144 N.ar    1  UNL1        0.0000
     27 C          -7.4570    1.6829   -0.3009 C.ar    1  UNL1        0.0000
     28 C          -6.1797    2.2097   -0.5227 C.ar    1  UNL1        0.0000
     29 N          -5.0100    1.5324   -0.3574 N.ar    1  UNL1        0.0000
     30 C          -5.2372    0.2519    0.0669 C.ar    1  UNL1        0.0000
     31 H           4.1118   -4.5363    1.2203 H       1  UNL1        0.0000
     32 H           3.6533   -3.3708    3.4000 H       1  UNL1        0.0000
     33 H           5.7534   -1.7907    1.4350 H       1  UNL1        0.0000
     34 H           6.4547    0.1583    0.6258 H       1  UNL1        0.0000
     35 H           7.2114    2.0804   -0.6870 H       1  UNL1        0.0000
     36 H           5.6045    3.3379   -2.0996 H       1  UNL1        0.0000
     37 H           3.2422    2.6803   -2.1663 H       1  UNL1        0.0000
     38 H          -0.6674    1.9206   -2.2160 H       1  UNL1        0.0000
     39 H          -2.7517    0.9261   -1.3371 H       1  UNL1        0.0000
     40 H          -0.2315   -1.8031    1.8064 H       1  UNL1        0.0000
     41 H           1.2883   -3.0701    1.1783 H       1  UNL1        0.0000
     42 H          -7.3836   -2.2154    0.9575 H       1  UNL1        0.0000
     43 H          -8.3368    2.3003   -0.4601 H       1  UNL1        0.0000
     44 H          -6.0672    3.2387   -0.8536 H       1  UNL1        0.0000
@<TRIPOS>BOND
     1     1     2    1
     2     2     3    2
     3     3     4   ar
     4     4     5   ar
     5     5     6   ar
     6     6     7   ar
     7     7     8   ar
     8     8     9   ar
     9     9    10   ar
    10    10    11   ar
    11    11    12   ar
    12    12    13   ar
    13    13    14   ar
    14    14    15   ar
    15    15    16   ar
    16    16    17   ar
    17    17    18   ar
    18    18    19   ar
    19    19    20   ar
    20    20    21    2
    21    15    22    1
    22    22    23   ar
    23    23    24   ar
    24    24    25   ar
    25    25    26   ar
    26    26    27   ar
    27    27    28   ar
    28    28    29   ar
    29    29    30   ar
    30    21     1    1
    31    30    22   ar
    32    20     3   ar
    33    30    25   ar
    34     9     4   ar
    35    19    10   ar
    36    18    13   ar
    37     1    31    1
    38     1    32    1
    39     2    33    1
    40     5    34    1
    41     6    35    1
    42     7    36    1
    43     8    37    1
    44    12    38    1
    45    14    39    1
    46    17    40    1
    47    21    41    1
    48    24    42    1
    49    27    43    1
    50    28    44    1
