@<TRIPOS>MOLECULE
*****
 48 55 0 0 0
SMALL
GASTEIGER

@<TRIPOS>ATOM
      1 SI         -3.2130   -1.3345   -3.4712 Si      1  UNL1        0.0000
      2 C          -4.4942   -0.9746   -2.1620 C.2     1  UNL1        0.0000
      3 C          -3.9195   -0.6084   -0.9961 C.ar    1  UNL1        0.0000
      4 C          -4.6314   -0.4842    0.2860 C.ar    1  UNL1        0.0000
      5 C          -6.0252   -0.4716    0.4098 C.ar    1  UNL1        0.0000
      6 C          -6.6086   -0.4122    1.6711 C.ar    1  UNL1        0.0000
      7 C          -5.7774   -0.3700    2.7738 C.ar    1  UNL1        0.0000
      8 N          -4.4302   -0.3706    2.6977 N.ar    1  UNL1        0.0000
      9 C          -3.8603   -0.4206    1.4596 C.ar    1  UNL1        0.0000
     10 C          -2.3726   -0.3251    1.4206 C.ar    1  UNL1        0.0000
     11 C          -1.6283   -0.3507    2.6107 C.ar    1  UNL1        0.0000
     12 C          -0.2436   -0.1786    2.6169 C.ar    1  UNL1        0.0000
     13 C           0.4548    0.1454    1.4547 C.ar    1  UNL1        0.0000
     14 C           1.8670    0.3729    1.5746 C.ar    1  UNL1        0.0000
     15 C           2.7085    0.7973    0.5278 C.ar    1  UNL1        0.0000
     16 C           4.1290    0.9989    0.6740 C.ar    1  UNL1        0.0000
     17 S           4.8097    2.2287    1.6844 S.2     1  UNL1        0.0000
     18 C           6.4495    1.7944    1.2905 C.ar    1  UNL1        0.0000
     19 C           6.4002    0.7502    0.4384 C.ar    1  UNL1        0.0000
     20 C           7.2420   -0.1259   -0.2892 C.ar    1  UNL1        0.0000
     21 C           6.4024   -1.0159   -0.9941 C.ar    1  UNL1        0.0000
     22 N           5.0549   -0.7536   -0.7522 N.ar    1  UNL1        0.0000
     23 C           5.1398    0.3093    0.1018 C.ar    1  UNL1        0.0000
     24 C           1.9911    1.0589   -0.6441 C.ar    1  UNL1        0.0000
     25 C           2.5523    1.6222   -1.7693 C.ar    1  UNL1        0.0000
     26 S           1.3756    1.9496   -2.9686 S.2     1  UNL1        0.0000
     27 C           0.1090    1.3651   -1.9716 C.ar    1  UNL1        0.0000
     28 C           0.5670    0.8156   -0.7938 C.ar    1  UNL1        0.0000
     29 C          -0.2842    0.2496    0.2234 C.ar    1  UNL1        0.0000
     30 C          -1.6713   -0.1545    0.1963 C.ar    1  UNL1        0.0000
     31 C          -2.4416   -0.5087   -1.0314 C.ar    1  UNL1        0.0000
     32 C          -1.9096   -0.9609   -2.1881 C.2     1  UNL1        0.0000
     33 H          -3.2301   -0.3360   -4.5665 H       1  UNL1        0.0000
     34 H          -3.2136   -2.7572   -3.8868 H       1  UNL1        0.0000
     35 H          -5.5350   -1.1706   -2.3607 H       1  UNL1        0.0000
     36 H          -6.6678   -0.5096   -0.4641 H       1  UNL1        0.0000
     37 H          -7.6863   -0.4037    1.7892 H       1  UNL1        0.0000
     38 H          -6.1837   -0.3277    3.7803 H       1  UNL1        0.0000
     39 H          -2.1322   -0.5175    3.5623 H       1  UNL1        0.0000
     40 H           0.2709   -0.2447    3.5747 H       1  UNL1        0.0000
     41 H           2.3327    0.2156    2.5508 H       1  UNL1        0.0000
     42 H           7.2919    2.3246    1.7100 H       1  UNL1        0.0000
     43 H           8.3236   -0.1344   -0.3153 H       1  UNL1        0.0000
     44 H           6.6650   -1.8300   -1.6576 H       1  UNL1        0.0000
     45 H           4.2170   -1.2064   -1.0983 H       1  UNL1        0.0000
     46 H           3.5807    1.9057   -1.9502 H       1  UNL1        0.0000
     47 H          -0.9054    1.4742   -2.3249 H       1  UNL1        0.0000
     48 H          -0.8696   -1.1195   -2.4230 H       1  UNL1        0.0000
@<TRIPOS>BOND
     1     1     2    1
     2     2     3    2
     3     3     4   ar
     4     4     5   ar
     5     5     6   ar
     6     6     7   ar
     7     7     8   ar
     8     8     9   ar
     9     9    10   ar
    10    10    11   ar
    11    11    12   ar
    12    12    13   ar
    13    13    14   ar
    14    14    15   ar
    15    15    16    1
    16    16    17   ar
    17    17    18   ar
    18    18    19   ar
    19    19    20   ar
    20    20    21   ar
    21    21    22   ar
    22    22    23   ar
    23    15    24   ar
    24    24    25   ar
    25    25    26   ar
    26    26    27   ar
    27    27    28   ar
    28    28    29   ar
    29    29    30   ar
    30    30    31   ar
    31    31    32    2
    32    32     1    1
    33    31     3   ar
    34     9     4   ar
    35    30    10   ar
    36    29    13   ar
    37    23    16   ar
    38    28    24   ar
    39    23    19   ar
    40     1    33    1
    41     1    34    1
    42     2    35    1
    43     5    36    1
    44     6    37    1
    45     7    38    1
    46    11    39    1
    47    12    40    1
    48    14    41    1
    49    18    42    1
    50    20    43    1
    51    21    44    1
    52    22    45    1
    53    25    46    1
    54    27    47    1
    55    32    48    1
