@<TRIPOS>MOLECULE
*****
 43 49 0 0 0
SMALL
GASTEIGER

@<TRIPOS>ATOM
      1 SI          2.5084   -2.9328    2.4036 Si      1  UNL1        0.0000
      2 C           3.9363   -2.0032    1.6664 C.2     1  UNL1        0.0000
      3 C           3.5262   -1.0040    0.8558 C.ar    1  UNL1        0.0000
      4 C           4.4358   -0.0982    0.1336 C.ar    1  UNL1        0.0000
      5 C           5.8342   -0.1757    0.2091 C.ar    1  UNL1        0.0000
      6 C           6.6255    0.7185   -0.5046 C.ar    1  UNL1        0.0000
      7 C           5.9944    1.6700   -1.2779 C.ar    1  UNL1        0.0000
      8 N           4.6559    1.7776   -1.3773 N.ar    1  UNL1        0.0000
      9 C           3.8753    0.8996   -0.6765 C.ar    1  UNL1        0.0000
     10 C           2.3958    1.0567   -0.8174 C.ar    1  UNL1        0.0000
     11 N           2.0090    2.0806   -1.6469 N.ar    1  UNL1        0.0000
     12 C           0.6987    2.3015   -1.8381 C.ar    1  UNL1        0.0000
     13 C          -0.2767    1.5407   -1.2346 C.ar    1  UNL1        0.0000
     14 C          -1.7207    1.7632   -1.4286 C.2     1  UNL1        0.0000
     15 C          -2.5220    0.9139   -0.7522 C.2     1  UNL1        0.0000
     16 SI         -1.4868   -0.3061    0.2417 Si      1  UNL1        0.0000
     17 C           0.1109    0.4792   -0.3748 C.ar    1  UNL1        0.0000
     18 C           1.4728    0.2086   -0.1426 C.ar    1  UNL1        0.0000
     19 C           2.0489   -0.8618    0.7270 C.ar    1  UNL1        0.0000
     20 C           1.3778   -1.7772    1.4601 C.2     1  UNL1        0.0000
     21 C          -3.9561    0.9155   -0.7680 C.ar    1  UNL1        0.0000
     22 S          -4.8272    2.0928   -1.7297 S.2     1  UNL1        0.0000
     23 C          -6.3651    1.5132   -1.2759 C.ar    1  UNL1        0.0000
     24 C          -6.2625    0.4548   -0.4185 C.ar    1  UNL1        0.0000
     25 N          -7.3538   -0.1838    0.0874 N.ar    1  UNL1        0.0000
     26 C          -6.9809   -1.1976    0.9114 C.ar    1  UNL1        0.0000
     27 C          -5.6595   -1.5457    1.2063 C.ar    1  UNL1        0.0000
     28 N          -4.5546   -0.9229    0.7134 N.ar    1  UNL1        0.0000
     29 C          -4.8897    0.1068   -0.1231 C.ar    1  UNL1        0.0000
     30 H           2.4020   -2.7507    3.8705 H       1  UNL1        0.0000
     31 H           2.4202   -4.3293    1.9153 H       1  UNL1        0.0000
     32 H           4.9439   -2.2949    1.9116 H       1  UNL1        0.0000
     33 H           6.3266   -0.9261    0.8189 H       1  UNL1        0.0000
     34 H           7.7075    0.6719   -0.4568 H       1  UNL1        0.0000
     35 H           6.5602    2.3941   -1.8565 H       1  UNL1        0.0000
     36 H           0.4617    3.1246   -2.5042 H       1  UNL1        0.0000
     37 H          -2.0489    2.5649   -2.0781 H       1  UNL1        0.0000
     38 H          -1.6023   -1.7087   -0.2401 H       1  UNL1        0.0000
     39 H          -1.6223   -0.1348    1.7130 H       1  UNL1        0.0000
     40 H           0.3254   -1.9386    1.5810 H       1  UNL1        0.0000
     41 H          -7.2672    1.9707   -1.6552 H       1  UNL1        0.0000
     42 H          -7.8035   -1.7533    1.3529 H       1  UNL1        0.0000
     43 H          -5.4535   -2.3741    1.8787 H       1  UNL1        0.0000
@<TRIPOS>BOND
     1     1     2    1
     2     2     3    2
     3     3     4   ar
     4     4     5   ar
     5     5     6   ar
     6     6     7   ar
     7     7     8   ar
     8     8     9   ar
     9     9    10   ar
    10    10    11   ar
    11    11    12   ar
    12    12    13   ar
    13    13    14    1
    14    14    15    2
    15    15    16    1
    16    16    17    1
    17    17    18   ar
    18    18    19   ar
    19    19    20    2
    20    15    21    1
    21    21    22   ar
    22    22    23   ar
    23    23    24   ar
    24    24    25   ar
    25    25    26   ar
    26    26    27   ar
    27    27    28   ar
    28    28    29   ar
    29    20     1    1
    30    29    21   ar
    31    19     3   ar
    32    29    24   ar
    33     9     4   ar
    34    18    10   ar
    35    17    13   ar
    36     1    30    1
    37     1    31    1
    38     2    32    1
    39     5    33    1
    40     6    34    1
    41     7    35    1
    42    12    36    1
    43    14    37    1
    44    16    38    1
    45    16    39    1
    46    20    40    1
    47    23    41    1
    48    26    42    1
    49    27    43    1
