@<TRIPOS>MOLECULE
*****
 48 55 0 0 0
SMALL
GASTEIGER

@<TRIPOS>ATOM
      1 SI         -4.1542   -3.4247   -0.6870 Si      1  UNL1        0.0000
      2 C          -5.0985   -1.9509   -0.0354 C.2     1  UNL1        0.0000
      3 C          -4.3018   -0.8683    0.0937 C.ar    1  UNL1        0.0000
      4 C          -4.7810    0.4987    0.3650 C.ar    1  UNL1        0.0000
      5 C          -6.0874    0.8007    0.7684 C.ar    1  UNL1        0.0000
      6 C          -6.4700    2.1260    0.9473 C.ar    1  UNL1        0.0000
      7 C          -5.5327    3.1136    0.7157 C.ar    1  UNL1        0.0000
      8 N          -4.2633    2.8647    0.3376 N.ar    1  UNL1        0.0000
      9 C          -3.8834    1.5639    0.1656 C.ar    1  UNL1        0.0000
     10 C          -2.4469    1.3191   -0.1697 C.ar    1  UNL1        0.0000
     11 N          -1.6860    2.4274   -0.3854 N.ar    1  UNL1        0.0000
     12 C          -0.3594    2.2737   -0.5734 C.ar    1  UNL1        0.0000
     13 C           0.3292    1.0752   -0.4671 C.ar    1  UNL1        0.0000
     14 C           1.7686    1.0828   -0.6091 C.ar    1  UNL1        0.0000
     15 C           2.5955   -0.0435   -0.4320 C.ar    1  UNL1        0.0000
     16 C           4.0363   -0.0301   -0.5202 C.ar    1  UNL1        0.0000
     17 S           4.8196   -0.6605   -1.9259 S.2     1  UNL1        0.0000
     18 C           6.3998   -0.2998   -1.3224 C.ar    1  UNL1        0.0000
     19 C           6.3221    0.2873   -0.0884 C.ar    1  UNL1        0.0000
     20 C           7.3492    0.7558    0.7903 C.2     1  UNL1        0.0000
     21 C           6.9037    1.2880    1.9499 C.2     1  UNL1        0.0000
     22 SI          4.9886    1.2429    2.0502 Si      1  UNL1        0.0000
     23 C           4.9793    0.4338    0.3481 C.ar    1  UNL1        0.0000
     24 C           1.8467   -1.1463   -0.0420 C.ar    1  UNL1        0.0000
     25 C           2.3159   -2.3735    0.3496 C.ar    1  UNL1        0.0000
     26 O           1.2747   -3.1434    0.7762 O.2     1  UNL1        0.0000
     27 C           0.1369   -2.3986    0.6476 C.ar    1  UNL1        0.0000
     28 C           0.4190   -1.1794    0.0804 C.ar    1  UNL1        0.0000
     29 C          -0.4698   -0.0895   -0.1905 C.ar    1  UNL1        0.0000
     30 C          -1.9008    0.0188   -0.1825 C.ar    1  UNL1        0.0000
     31 C          -2.8761   -1.0998   -0.2382 C.ar    1  UNL1        0.0000
     32 C          -2.6470   -2.3213   -0.7660 C.2     1  UNL1        0.0000
     33 H          -4.6220   -3.8472   -2.0280 H       1  UNL1        0.0000
     34 H          -4.0130   -4.4960    0.3272 H       1  UNL1        0.0000
     35 H          -6.1671   -2.0130    0.0897 H       1  UNL1        0.0000
     36 H          -6.8180    0.0175    0.9444 H       1  UNL1        0.0000
     37 H          -7.4775    2.3814    1.2558 H       1  UNL1        0.0000
     38 H          -5.7803    4.1643    0.8358 H       1  UNL1        0.0000
     39 H           0.1588    3.2081   -0.7793 H       1  UNL1        0.0000
     40 H           2.2588    2.0282   -0.8541 H       1  UNL1        0.0000
     41 H           7.2744   -0.5398   -1.9105 H       1  UNL1        0.0000
     42 H           8.4004    0.6845    0.5357 H       1  UNL1        0.0000
     43 H           7.4887    1.7005    2.7559 H       1  UNL1        0.0000
     44 H           4.5425    0.3522    3.1498 H       1  UNL1        0.0000
     45 H           4.4291    2.6176    2.0641 H       1  UNL1        0.0000
     46 H           3.2945   -2.8274    0.4263 H       1  UNL1        0.0000
     47 H          -0.7536   -2.8795    1.0242 H       1  UNL1        0.0000
     48 H          -1.7427   -2.6942   -1.2188 H       1  UNL1        0.0000
@<TRIPOS>BOND
     1     1     2    1
     2     2     3    2
     3     3     4   ar
     4     4     5   ar
     5     5     6   ar
     6     6     7   ar
     7     7     8   ar
     8     8     9   ar
     9     9    10   ar
    10    10    11   ar
    11    11    12   ar
    12    12    13   ar
    13    13    14   ar
    14    14    15   ar
    15    15    16    1
    16    16    17   ar
    17    17    18   ar
    18    18    19   ar
    19    19    20    1
    20    20    21    2
    21    21    22    1
    22    22    23    1
    23    15    24   ar
    24    24    25   ar
    25    25    26   ar
    26    26    27   ar
    27    27    28   ar
    28    28    29   ar
    29    29    30   ar
    30    30    31   ar
    31    31    32    2
    32    32     1    1
    33    31     3   ar
    34     9     4   ar
    35    30    10   ar
    36    29    13   ar
    37    23    16   ar
    38    28    24   ar
    39    23    19   ar
    40     1    33    1
    41     1    34    1
    42     2    35    1
    43     5    36    1
    44     6    37    1
    45     7    38    1
    46    12    39    1
    47    14    40    1
    48    18    41    1
    49    20    42    1
    50    21    43    1
    51    22    44    1
    52    22    45    1
    53    25    46    1
    54    27    47    1
    55    32    48    1
