@<TRIPOS>MOLECULE
*****
 48 55 0 0 0
SMALL
GASTEIGER

@<TRIPOS>ATOM
      1 SI         -1.7684    4.3958    1.1980 Si      1  UNL1        0.0000
      2 C          -3.2378    3.2607    1.3341 C.2     1  UNL1        0.0000
      3 C          -2.9211    1.9906    1.0016 C.ar    1  UNL1        0.0000
      4 C          -3.8644    0.8537    0.9836 C.ar    1  UNL1        0.0000
      5 C          -5.1296    0.9379    1.5839 C.ar    1  UNL1        0.0000
      6 C          -5.9086   -0.1995    1.6626 C.ar    1  UNL1        0.0000
      7 N          -5.5029   -1.4018    1.2263 N.ar    1  UNL1        0.0000
      8 C          -4.2740   -1.4545    0.6523 C.ar    1  UNL1        0.0000
      9 C          -3.4240   -0.3670    0.4217 C.ar    1  UNL1        0.0000
     10 C          -2.0696   -0.5069   -0.2251 C.ar    1  UNL1        0.0000
     11 C          -1.7151   -1.5682   -1.1192 C.ar    1  UNL1        0.0000
     12 C          -2.6403   -2.3814   -1.8261 C.ar    1  UNL1        0.0000
     13 C          -2.2428   -3.4317   -2.6612 C.ar    1  UNL1        0.0000
     14 C          -0.8958   -3.7008   -2.8432 C.ar    1  UNL1        0.0000
     15 C           0.0521   -2.8977   -2.2181 C.ar    1  UNL1        0.0000
     16 C          -0.3428   -1.8255   -1.3852 C.ar    1  UNL1        0.0000
     17 C           0.6642   -0.9998   -0.8161 C.ar    1  UNL1        0.0000
     18 C           2.0955   -1.0016   -0.8435 C.ar    1  UNL1        0.0000
     19 C           2.5560    0.0753   -0.1171 C.ar    1  UNL1        0.0000
     20 N           1.4369    0.7379    0.3247 N.ar    1  UNL1        0.0000
     21 C           0.2755    0.1310   -0.1005 C.ar    1  UNL1        0.0000
     22 C          -1.0755    0.4580    0.1114 C.ar    1  UNL1        0.0000
     23 C          -1.5059    1.7836    0.6155 C.ar    1  UNL1        0.0000
     24 C          -0.7751    2.9211    0.6187 C.2     1  UNL1        0.0000
     25 C           3.8838    0.5263    0.1871 C.ar    1  UNL1        0.0000
     26 S           4.2156    2.1611    0.6664 S.2     1  UNL1        0.0000
     27 C           5.9057    1.8896    0.8128 C.ar    1  UNL1        0.0000
     28 C           6.1444    0.5949    0.5129 C.ar    1  UNL1        0.0000
     29 C           7.3308   -0.1748    0.4816 C.ar    1  UNL1        0.0000
     30 C           7.0936   -1.5046    0.1206 C.ar    1  UNL1        0.0000
     31 S           5.4230   -1.9357   -0.2069 S.2     1  UNL1        0.0000
     32 C           5.0499   -0.2001    0.1633 C.ar    1  UNL1        0.0000
     33 H          -1.9306    5.4203    0.1394 H       1  UNL1        0.0000
     34 H          -1.3082    4.8958    2.5155 H       1  UNL1        0.0000
     35 H          -4.1953    3.6559    1.6293 H       1  UNL1        0.0000
     36 H          -5.5029    1.8579    2.0166 H       1  UNL1        0.0000
     37 H          -6.8933   -0.1761    2.1197 H       1  UNL1        0.0000
     38 H          -3.9755   -2.4705    0.4084 H       1  UNL1        0.0000
     39 H          -3.7079   -2.1775   -1.7784 H       1  UNL1        0.0000
     40 H          -2.9924   -4.0272   -3.1763 H       1  UNL1        0.0000
     41 H          -0.5813   -4.5156   -3.4893 H       1  UNL1        0.0000
     42 H           1.1033   -3.1058   -2.4002 H       1  UNL1        0.0000
     43 H           2.7122   -1.7291   -1.3521 H       1  UNL1        0.0000
     44 H           1.4702    1.5389    0.9364 H       1  UNL1        0.0000
     45 H           0.2291    3.0848    0.2711 H       1  UNL1        0.0000
     46 H           6.5863    2.6762    1.1067 H       1  UNL1        0.0000
     47 H           8.3224    0.1966    0.7098 H       1  UNL1        0.0000
     48 H           7.8308   -2.2905    0.0267 H       1  UNL1        0.0000
@<TRIPOS>BOND
     1     1     2    1
     2     2     3    2
     3     3     4   ar
     4     4     5   ar
     5     5     6   ar
     6     6     7   ar
     7     7     8   ar
     8     8     9   ar
     9     9    10   ar
    10    10    11   ar
    11    11    12   ar
    12    12    13   ar
    13    13    14   ar
    14    14    15   ar
    15    15    16   ar
    16    16    17   ar
    17    17    18   ar
    18    18    19   ar
    19    19    20   ar
    20    20    21   ar
    21    21    22   ar
    22    22    23   ar
    23    23    24    2
    24    19    25    1
    25    25    26   ar
    26    26    27   ar
    27    27    28   ar
    28    28    29   ar
    29    29    30   ar
    30    30    31   ar
    31    31    32   ar
    32    24     1    1
    33    32    25   ar
    34    23     3   ar
    35    32    28   ar
    36     9     4   ar
    37    22    10   ar
    38    16    11   ar
    39    21    17   ar
    40     1    33    1
    41     1    34    1
    42     2    35    1
    43     5    36    1
    44     6    37    1
    45     8    38    1
    46    12    39    1
    47    13    40    1
    48    14    41    1
    49    15    42    1
    50    18    43    1
    51    20    44    1
    52    24    45    1
    53    27    46    1
    54    29    47    1
    55    30    48    1
