@<TRIPOS>MOLECULE
*****
 46 53 0 0 0
SMALL
GASTEIGER

@<TRIPOS>ATOM
      1 SI         -4.1971    1.6566    2.7633 Si      1  UNL1        0.0000
      2 C          -5.0815    0.7999    1.3700 C.2     1  UNL1        0.0000
      3 C          -4.2270    0.1704    0.5328 C.ar    1  UNL1        0.0000
      4 C          -4.6463   -0.6138   -0.6435 C.ar    1  UNL1        0.0000
      5 C          -5.9939   -0.6726   -1.0402 C.ar    1  UNL1        0.0000
      6 C          -6.3362   -1.3995   -2.1603 C.ar    1  UNL1        0.0000
      7 N          -5.4380   -2.0532   -2.9061 N.ar    1  UNL1        0.0000
      8 C          -4.1409   -1.9809   -2.5044 C.ar    1  UNL1        0.0000
      9 C          -3.6550   -1.2985   -1.3797 C.ar    1  UNL1        0.0000
     10 C          -2.2103   -1.2313   -0.9867 C.ar    1  UNL1        0.0000
     11 C          -1.1942   -1.9990   -1.6440 C.ar    1  UNL1        0.0000
     12 N          -1.3605   -2.9282   -2.6022 N.ar    1  UNL1        0.0000
     13 S           0.1186   -3.5163   -3.0263 S.2     1  UNL1        0.0000
     14 N           1.0745   -2.6251   -2.0217 N.ar    1  UNL1        0.0000
     15 C           0.2591   -1.8361   -1.2966 C.ar    1  UNL1        0.0000
     16 C           0.6797   -0.9117   -0.3005 C.ar    1  UNL1        0.0000
     17 C           2.0567   -0.7456   -0.0145 C.ar    1  UNL1        0.0000
     18 C           2.4600    0.1621    0.9519 C.ar    1  UNL1        0.0000
     19 C           1.4465    0.8557    1.5840 C.ar    1  UNL1        0.0000
     20 N           0.1209    0.6984    1.3184 N.ar    1  UNL1        0.0000
     21 C          -0.3159   -0.1811    0.3871 C.ar    1  UNL1        0.0000
     22 C          -1.7184   -0.3774    0.0813 C.ar    1  UNL1        0.0000
     23 C          -2.7949    0.2995    0.8959 C.ar    1  UNL1        0.0000
     24 C          -2.6174    1.0110    2.0325 C.2     1  UNL1        0.0000
     25 C           3.8687    0.3767    1.2622 C.ar    1  UNL1        0.0000
     26 S           4.4314    0.2176    2.8948 S.2     1  UNL1        0.0000
     27 C           6.0679    0.5715    2.4724 C.ar    1  UNL1        0.0000
     28 C           6.1793    0.8040    1.1290 C.ar    1  UNL1        0.0000
     29 C           7.3214    1.1374    0.3342 C.2     1  UNL1        0.0000
     30 C           7.0665    1.3105   -0.9812 C.2     1  UNL1        0.0000
     31 SI          5.2115    1.0480   -1.3722 Si      1  UNL1        0.0000
     32 C           4.9306    0.6870    0.4609 C.ar    1  UNL1        0.0000
     33 H          -4.5152    1.0565    4.0813 H       1  UNL1        0.0000
     34 H          -4.3185    3.1321    2.6816 H       1  UNL1        0.0000
     35 H          -6.1565    0.8439    1.3299 H       1  UNL1        0.0000
     36 H          -6.7802   -0.1592   -0.5011 H       1  UNL1        0.0000
     37 H          -7.3662   -1.4684   -2.4964 H       1  UNL1        0.0000
     38 H          -3.4965   -2.5176   -3.1901 H       1  UNL1        0.0000
     39 H           2.7977   -1.3407   -0.5452 H       1  UNL1        0.0000
     40 H           1.6612    1.5983    2.3491 H       1  UNL1        0.0000
     41 H          -1.7028    1.2334    2.5536 H       1  UNL1        0.0000
     42 H           6.8357    0.5872    3.2331 H       1  UNL1        0.0000
     43 H           8.3108    1.2413    0.7649 H       1  UNL1        0.0000
     44 H           7.7663    1.5635   -1.7612 H       1  UNL1        0.0000
     45 H           5.0138   -0.1323   -2.2493 H       1  UNL1        0.0000
     46 H           4.5848    2.3085   -1.8410 H       1  UNL1        0.0000
@<TRIPOS>BOND
     1     1     2    1
     2     2     3    2
     3     3     4   ar
     4     4     5   ar
     5     5     6   ar
     6     6     7   ar
     7     7     8   ar
     8     8     9   ar
     9     9    10   ar
    10    10    11   ar
    11    11    12   ar
    12    12    13   ar
    13    13    14   ar
    14    14    15   ar
    15    15    16   ar
    16    16    17   ar
    17    17    18   ar
    18    18    19   ar
    19    19    20   ar
    20    20    21   ar
    21    21    22   ar
    22    22    23   ar
    23    23    24    2
    24    18    25    1
    25    25    26   ar
    26    26    27   ar
    27    27    28   ar
    28    28    29    1
    29    29    30    2
    30    30    31    1
    31    31    32    1
    32    24     1    1
    33    32    25   ar
    34    23     3   ar
    35    32    28   ar
    36     9     4   ar
    37    22    10   ar
    38    15    11   ar
    39    21    16   ar
    40     1    33    1
    41     1    34    1
    42     2    35    1
    43     5    36    1
    44     6    37    1
    45     8    38    1
    46    17    39    1
    47    19    40    1
    48    24    41    1
    49    27    42    1
    50    29    43    1
    51    30    44    1
    52    31    45    1
    53    31    46    1
