@<TRIPOS>MOLECULE
*****
 42 47 0 0 0
SMALL
GASTEIGER

@<TRIPOS>ATOM
      1 SI         -2.8143    3.7507   -0.7580 Si      1  UNL1        0.0000
      2 C          -4.0580    2.3911   -0.4972 C.2     1  UNL1        0.0000
      3 C          -3.4637    1.2039   -0.2440 C.ar    1  UNL1        0.0000
      4 C          -4.1879   -0.0569    0.0009 C.ar    1  UNL1        0.0000
      5 C          -5.5911   -0.1192   -0.0067 C.ar    1  UNL1        0.0000
      6 C          -6.2134   -1.3288    0.2286 C.ar    1  UNL1        0.0000
      7 N          -5.5436   -2.4651    0.4677 N.ar    1  UNL1        0.0000
      8 C          -4.1890   -2.3795    0.4700 C.ar    1  UNL1        0.0000
      9 C          -3.4309   -1.2208    0.2469 C.ar    1  UNL1        0.0000
     10 C          -1.9296   -1.2028    0.2666 C.ar    1  UNL1        0.0000
     11 C          -1.2037   -2.3821    0.5146 C.ar    1  UNL1        0.0000
     12 C           0.1854   -2.3970    0.5421 C.ar    1  UNL1        0.0000
     13 C           0.9089   -1.2290    0.3226 C.ar    1  UNL1        0.0000
     14 C           2.3140   -1.2792    0.3602 C.ar    1  UNL1        0.0000
     15 C           3.0845   -0.1371    0.1508 C.ar    1  UNL1        0.0000
     16 C           2.3667    1.0198   -0.0929 C.ar    1  UNL1        0.0000
     17 N           1.0138    1.0955   -0.1339 N.ar    1  UNL1        0.0000
     18 C           0.2501   -0.0069    0.0678 C.ar    1  UNL1        0.0000
     19 C          -1.1802   -0.0007    0.0384 C.ar    1  UNL1        0.0000
     20 C          -1.9808    1.2430   -0.2287 C.ar    1  UNL1        0.0000
     21 C          -1.4928    2.4793   -0.4772 C.2     1  UNL1        0.0000
     22 C           4.5498   -0.1591    0.1867 C.ar    1  UNL1        0.0000
     23 C           5.2868    0.7550    0.9516 C.ar    1  UNL1        0.0000
     24 C           6.6800    0.7028    0.9638 C.ar    1  UNL1        0.0000
     25 C           7.3077   -0.2695    0.2053 C.ar    1  UNL1        0.0000
     26 N           6.6453   -1.1709   -0.5475 N.ar    1  UNL1        0.0000
     27 C           5.2922   -1.0925   -0.5395 C.ar    1  UNL1        0.0000
     28 H          -2.8747    4.7769    0.3110 H       1  UNL1        0.0000
     29 H          -2.8387    4.2727   -2.1459 H       1  UNL1        0.0000
     30 H          -5.1080    2.6197   -0.5617 H       1  UNL1        0.0000
     31 H          -6.2074    0.7518   -0.1914 H       1  UNL1        0.0000
     32 H          -7.2960   -1.4136    0.2300 H       1  UNL1        0.0000
     33 H          -3.7310   -3.3417    0.6714 H       1  UNL1        0.0000
     34 H          -1.6934   -3.3340    0.6960 H       1  UNL1        0.0000
     35 H           0.6934   -3.3394    0.7395 H       1  UNL1        0.0000
     36 H           2.8112   -2.2250    0.5718 H       1  UNL1        0.0000
     37 H           2.8675    1.9665   -0.2823 H       1  UNL1        0.0000
     38 H          -0.4657    2.7957   -0.5290 H       1  UNL1        0.0000
     39 H           4.7827    1.5061    1.5561 H       1  UNL1        0.0000
     40 H           7.2602    1.4023    1.5553 H       1  UNL1        0.0000
     41 H           8.3906   -0.3518    0.1831 H       1  UNL1        0.0000
     42 H           4.8031   -1.8304   -1.1715 H       1  UNL1        0.0000
@<TRIPOS>BOND
     1     1     2    1
     2     2     3    2
     3     3     4   ar
     4     4     5   ar
     5     5     6   ar
     6     6     7   ar
     7     7     8   ar
     8     8     9   ar
     9     9    10   ar
    10    10    11   ar
    11    11    12   ar
    12    12    13   ar
    13    13    14   ar
    14    14    15   ar
    15    15    16   ar
    16    16    17   ar
    17    17    18   ar
    18    18    19   ar
    19    19    20   ar
    20    20    21    2
    21    15    22    1
    22    22    23   ar
    23    23    24   ar
    24    24    25   ar
    25    25    26   ar
    26    26    27   ar
    27    21     1    1
    28    27    22   ar
    29    20     3   ar
    30     9     4   ar
    31    19    10   ar
    32    18    13   ar
    33     1    28    1
    34     1    29    1
    35     2    30    1
    36     5    31    1
    37     6    32    1
    38     8    33    1
    39    11    34    1
    40    12    35    1
    41    14    36    1
    42    16    37    1
    43    21    38    1
    44    23    39    1
    45    24    40    1
    46    25    41    1
    47    27    42    1
