@<TRIPOS>MOLECULE
*****
 44 50 0 0 0
SMALL
GASTEIGER

@<TRIPOS>ATOM
      1 SI         -3.1401   -2.3797    3.3489 Si      1  UNL1        0.0000
      2 C          -4.3407   -1.2585    2.4865 C.2     1  UNL1        0.0000
      3 C          -3.7407   -0.5773    1.4915 C.ar    1  UNL1        0.0000
      4 C          -4.4053    0.2053    0.5093 C.ar    1  UNL1        0.0000
      5 C          -5.7359    0.6195    0.3096 C.ar    1  UNL1        0.0000
      6 C          -5.7254    1.3310   -0.8739 C.ar    1  UNL1        0.0000
      7 O          -4.4701    1.3725   -1.4083 O.2     1  UNL1        0.0000
      8 C          -3.6779    0.6767   -0.5559 C.ar    1  UNL1        0.0000
      9 C          -2.2577    0.5369   -0.7566 C.ar    1  UNL1        0.0000
     10 C          -1.5256    1.0163   -1.8353 C.ar    1  UNL1        0.0000
     11 C          -1.9682    1.6265   -2.9808 C.ar    1  UNL1        0.0000
     12 O          -0.9048    1.9321   -3.7829 O.2     1  UNL1        0.0000
     13 C           0.2252    1.5205   -3.1349 C.ar    1  UNL1        0.0000
     14 C          -0.1091    0.9490   -1.9327 C.ar    1  UNL1        0.0000
     15 C           0.7512    0.4371   -0.9367 C.ar    1  UNL1        0.0000
     16 C           2.1667    0.4418   -1.0342 C.ar    1  UNL1        0.0000
     17 C           2.9583    0.0034    0.0294 C.ar    1  UNL1        0.0000
     18 C           2.2986   -0.4095    1.1907 C.ar    1  UNL1        0.0000
     19 C           0.8933   -0.4236    1.2786 C.ar    1  UNL1        0.0000
     20 C           0.0399   -0.0548    0.2138 C.ar    1  UNL1        0.0000
     21 C          -1.4412   -0.0982    0.2567 C.ar    1  UNL1        0.0000
     22 C          -2.2565   -0.8042    1.3418 C.ar    1  UNL1        0.0000
     23 C          -1.8198   -1.7916    2.1560 C.2     1  UNL1        0.0000
     24 C           4.4246    0.0051   -0.0597 C.ar    1  UNL1        0.0000
     25 C           5.1004   -0.6039   -1.1252 C.ar    1  UNL1        0.0000
     26 C           6.4934   -0.5869   -1.1787 C.ar    1  UNL1        0.0000
     27 C           7.1821    0.0436   -0.1573 C.ar    1  UNL1        0.0000
     28 N           6.5804    0.6450    0.8889 N.ar    1  UNL1        0.0000
     29 C           5.2250    0.6124    0.9099 C.ar    1  UNL1        0.0000
     30 H          -2.8585   -1.9579    4.7416 H       1  UNL1        0.0000
     31 H          -3.4618   -3.8146    3.1643 H       1  UNL1        0.0000
     32 H          -5.3927   -1.2710    2.7227 H       1  UNL1        0.0000
     33 H          -6.5986    0.4299    0.9313 H       1  UNL1        0.0000
     34 H          -6.4876    1.8439   -1.4440 H       1  UNL1        0.0000
     35 H          -2.9365    1.9026   -3.3741 H       1  UNL1        0.0000
     36 H           1.1499    1.7178   -3.6580 H       1  UNL1        0.0000
     37 H           2.6458    0.8181   -1.9352 H       1  UNL1        0.0000
     38 H           2.8709   -0.7325    2.0597 H       1  UNL1        0.0000
     39 H           0.4837   -0.6888    2.2480 H       1  UNL1        0.0000
     40 H          -0.8573   -2.2711    2.1853 H       1  UNL1        0.0000
     41 H           4.5460   -1.1072   -1.9141 H       1  UNL1        0.0000
     42 H           7.0267   -1.0585   -1.9964 H       1  UNL1        0.0000
     43 H           8.2677    0.0823   -0.1533 H       1  UNL1        0.0000
     44 H           4.7823    1.1208    1.7633 H       1  UNL1        0.0000
@<TRIPOS>BOND
     1     1     2    1
     2     2     3    2
     3     3     4   ar
     4     4     5   ar
     5     5     6   ar
     6     6     7   ar
     7     7     8   ar
     8     8     9   ar
     9     9    10   ar
    10    10    11   ar
    11    11    12   ar
    12    12    13   ar
    13    13    14   ar
    14    14    15   ar
    15    15    16   ar
    16    16    17   ar
    17    17    18   ar
    18    18    19   ar
    19    19    20   ar
    20    20    21   ar
    21    21    22   ar
    22    22    23    2
    23    17    24    1
    24    24    25   ar
    25    25    26   ar
    26    26    27   ar
    27    27    28   ar
    28    28    29   ar
    29    23     1    1
    30    29    24   ar
    31    22     3   ar
    32     8     4   ar
    33    21     9   ar
    34    14    10   ar
    35    20    15   ar
    36     1    30    1
    37     1    31    1
    38     2    32    1
    39     5    33    1
    40     6    34    1
    41    11    35    1
    42    13    36    1
    43    16    37    1
    44    18    38    1
    45    19    39    1
    46    23    40    1
    47    25    41    1
    48    26    42    1
    49    27    43    1
    50    29    44    1
