@<TRIPOS>MOLECULE
*****
 45 52 0 0 0
SMALL
GASTEIGER

@<TRIPOS>ATOM
      1 SI         -3.6578   -3.2471    2.0174 Si      1  UNL1        0.0000
      2 C          -4.8825   -1.9426    1.5247 C.2     1  UNL1        0.0000
      3 C          -4.2811   -0.9299    0.8723 C.ar    1  UNL1        0.0000
      4 C          -4.9425    0.1273    0.1946 C.ar    1  UNL1        0.0000
      5 C          -6.2852    0.5351    0.0793 C.ar    1  UNL1        0.0000
      6 C          -6.2650    1.6263   -0.7658 C.ar    1  UNL1        0.0000
      7 O          -4.9932    1.9046   -1.1717 O.2     1  UNL1        0.0000
      8 C          -4.1960    0.9772   -0.5860 C.ar    1  UNL1        0.0000
      9 C          -2.7557    0.9790   -0.7463 C.ar    1  UNL1        0.0000
     10 C          -2.0802    1.8929   -1.5945 C.ar    1  UNL1        0.0000
     11 N          -2.6138    2.7960   -2.4361 N.ar    1  UNL1        0.0000
     12 S          -1.3659    3.5727   -3.1885 S.2     1  UNL1        0.0000
     13 N          -0.0746    2.8200   -2.4776 N.ar    1  UNL1        0.0000
     14 C          -0.5758    1.9178   -1.6131 C.ar    1  UNL1        0.0000
     15 C           0.1839    1.0652   -0.7465 C.ar    1  UNL1        0.0000
     16 C           1.5922    1.1533   -0.7265 C.ar    1  UNL1        0.0000
     17 C           2.3066    0.3780    0.1716 C.ar    1  UNL1        0.0000
     18 N           1.6738   -0.4322    1.0451 N.ar    1  UNL1        0.0000
     19 C           0.3154   -0.5002    0.9982 C.ar    1  UNL1        0.0000
     20 C          -0.5284    0.1710    0.0997 C.ar    1  UNL1        0.0000
     21 C          -1.9728    0.0504    0.0314 C.ar    1  UNL1        0.0000
     22 C          -2.7847   -1.0264    0.7448 C.ar    1  UNL1        0.0000
     23 C          -2.3207   -2.2153    1.1919 C.2     1  UNL1        0.0000
     24 C           3.7631    0.4341    0.2637 C.ar    1  UNL1        0.0000
     25 C           4.5097    1.6479    0.2957 C.ar    1  UNL1        0.0000
     26 C           5.9381    1.7288    0.3811 C.ar    1  UNL1        0.0000
     27 C           6.7845    0.6049    0.4410 C.ar    1  UNL1        0.0000
     28 C           6.0632   -0.5873    0.4075 C.ar    1  UNL1        0.0000
     29 C           6.6819   -1.8127    0.4461 C.ar    1  UNL1        0.0000
     30 S           5.5372   -3.0903    0.3723 S.2     1  UNL1        0.0000
     31 C           4.2129   -1.9970    0.2888 C.ar    1  UNL1        0.0000
     32 C           4.6223   -0.6828    0.3255 C.ar    1  UNL1        0.0000
     33 H          -3.8770   -4.5337    1.3162 H       1  UNL1        0.0000
     34 H          -3.4649   -3.3284    3.4842 H       1  UNL1        0.0000
     35 H          -5.9414   -2.0790    1.6775 H       1  UNL1        0.0000
     36 H          -7.1614    0.1021    0.5390 H       1  UNL1        0.0000
     37 H          -7.0283    2.2832   -1.1590 H       1  UNL1        0.0000
     38 H           2.1123    1.8251   -1.4044 H       1  UNL1        0.0000
     39 H          -0.0798   -1.1155    1.7993 H       1  UNL1        0.0000
     40 H          -1.3340   -2.6389    1.1222 H       1  UNL1        0.0000
     41 H           3.9651    2.5938    0.2696 H       1  UNL1        0.0000
     42 H           6.3927    2.7199    0.4043 H       1  UNL1        0.0000
     43 H           7.8615    0.6841    0.5046 H       1  UNL1        0.0000
     44 H           7.7373   -2.0386    0.5097 H       1  UNL1        0.0000
     45 H           3.2090   -2.3930    0.2244 H       1  UNL1        0.0000
@<TRIPOS>BOND
     1     1     2    1
     2     2     3    2
     3     3     4   ar
     4     4     5   ar
     5     5     6   ar
     6     6     7   ar
     7     7     8   ar
     8     8     9   ar
     9     9    10   ar
    10    10    11   ar
    11    11    12   ar
    12    12    13   ar
    13    13    14   ar
    14    14    15   ar
    15    15    16   ar
    16    16    17   ar
    17    17    18   ar
    18    18    19   ar
    19    19    20   ar
    20    20    21   ar
    21    21    22   ar
    22    22    23    2
    23    17    24    1
    24    24    25   ar
    25    25    26   ar
    26    26    27   ar
    27    27    28   ar
    28    28    29   ar
    29    29    30   ar
    30    30    31   ar
    31    31    32   ar
    32    23     1    1
    33    32    24   ar
    34    22     3   ar
    35    32    28   ar
    36     8     4   ar
    37    21     9   ar
    38    14    10   ar
    39    20    15   ar
    40     1    33    1
    41     1    34    1
    42     2    35    1
    43     5    36    1
    44     6    37    1
    45    16    38    1
    46    19    39    1
    47    23    40    1
    48    25    41    1
    49    26    42    1
    50    27    43    1
    51    29    44    1
    52    31    45    1
