@<TRIPOS>MOLECULE
*****
 46 52 0 0 0
SMALL
GASTEIGER

@<TRIPOS>ATOM
      1 SI         -6.1911    2.1573   -1.7602 Si      1  UNL1        0.0000
      2 C          -6.3755    0.9533   -0.3500 C.2     1  UNL1        0.0000
      3 C          -5.1856    0.4228   -0.0111 C.ar    1  UNL1        0.0000
      4 C          -4.9354   -0.5284    1.0155 C.ar    1  UNL1        0.0000
      5 C          -5.7379   -1.1995    1.9573 C.ar    1  UNL1        0.0000
      6 C          -4.8716   -2.0004    2.6761 C.ar    1  UNL1        0.0000
      7 O          -3.5882   -1.8600    2.2314 O.2     1  UNL1        0.0000
      8 C          -3.6439   -0.9585    1.2179 C.ar    1  UNL1        0.0000
      9 C          -2.4474   -0.5552    0.4933 C.ar    1  UNL1        0.0000
     10 C          -1.1835   -1.0753    0.8036 C.ar    1  UNL1        0.0000
     11 C          -0.0982   -0.6210    0.0471 C.ar    1  UNL1        0.0000
     12 N           1.2348   -0.9532    0.1244 N.ar    1  UNL1        0.0000
     13 C           1.9661   -0.2529   -0.8068 C.ar    1  UNL1        0.0000
     14 C           1.0714    0.5241   -1.5171 C.ar    1  UNL1        0.0000
     15 C          -0.2291    0.3089   -0.9819 C.ar    1  UNL1        0.0000
     16 C          -1.5074    0.8237   -1.2852 C.ar    1  UNL1        0.0000
     17 C          -2.6260    0.3965   -0.5499 C.ar    1  UNL1        0.0000
     18 C          -4.0159    0.9026   -0.8168 C.ar    1  UNL1        0.0000
     19 C          -4.3519    1.8031   -1.7662 C.2     1  UNL1        0.0000
     20 C           3.4119   -0.4211   -0.9549 C.ar    1  UNL1        0.0000
     21 C           3.8756   -1.0299   -2.1312 C.ar    1  UNL1        0.0000
     22 C           5.2339   -1.2595   -2.3225 C.ar    1  UNL1        0.0000
     23 C           6.1445   -0.8820   -1.3391 C.ar    1  UNL1        0.0000
     24 C           5.7144   -0.2600   -0.1569 C.ar    1  UNL1        0.0000
     25 C           6.6505    0.1213    0.8192 C.ar    1  UNL1        0.0000
     26 C           6.2472    0.7544    1.9940 C.ar    1  UNL1        0.0000
     27 C           4.9015    1.0210    2.2062 C.ar    1  UNL1        0.0000
     28 C           3.9584    0.6462    1.2468 C.ar    1  UNL1        0.0000
     29 C           4.3335   -0.0114    0.0498 C.ar    1  UNL1        0.0000
     30 H          -6.4948    3.5519   -1.3597 H       1  UNL1        0.0000
     31 H          -6.8587    1.6886   -2.9981 H       1  UNL1        0.0000
     32 H          -7.3339    0.7468    0.0980 H       1  UNL1        0.0000
     33 H          -6.8048   -1.1215    2.1055 H       1  UNL1        0.0000
     34 H          -5.0023   -2.6943    3.4946 H       1  UNL1        0.0000
     35 H          -1.0542   -1.8018    1.5994 H       1  UNL1        0.0000
     36 H           1.6266   -1.6171    0.7780 H       1  UNL1        0.0000
     37 H           1.3287    1.1881   -2.3322 H       1  UNL1        0.0000
     38 H          -1.6008    1.5467   -2.0874 H       1  UNL1        0.0000
     39 H          -3.7100    2.3003   -2.4739 H       1  UNL1        0.0000
     40 H           3.1712   -1.3396   -2.9006 H       1  UNL1        0.0000
     41 H           5.5824   -1.7361   -3.2348 H       1  UNL1        0.0000
     42 H           7.2027   -1.0730   -1.5064 H       1  UNL1        0.0000
     43 H           7.7110   -0.0695    0.6678 H       1  UNL1        0.0000
     44 H           6.9854    1.0458    2.7364 H       1  UNL1        0.0000
     45 H           4.5809    1.5266    3.1134 H       1  UNL1        0.0000
     46 H           2.9156    0.8915    1.4376 H       1  UNL1        0.0000
@<TRIPOS>BOND
     1     1     2    1
     2     2     3    2
     3     3     4   ar
     4     4     5   ar
     5     5     6   ar
     6     6     7   ar
     7     7     8   ar
     8     8     9   ar
     9     9    10   ar
    10    10    11   ar
    11    11    12   ar
    12    12    13   ar
    13    13    14   ar
    14    14    15   ar
    15    15    16   ar
    16    16    17   ar
    17    17    18   ar
    18    18    19    2
    19    13    20    1
    20    20    21   ar
    21    21    22   ar
    22    22    23   ar
    23    23    24   ar
    24    24    25   ar
    25    25    26   ar
    26    26    27   ar
    27    27    28   ar
    28    28    29   ar
    29    19     1    1
    30    29    20   ar
    31    18     3   ar
    32    29    24   ar
    33     8     4   ar
    34    17     9   ar
    35    15    11   ar
    36     1    30    1
    37     1    31    1
    38     2    32    1
    39     5    33    1
    40     6    34    1
    41    10    35    1
    42    12    36    1
    43    14    37    1
    44    16    38    1
    45    19    39    1
    46    21    40    1
    47    22    41    1
    48    23    42    1
    49    25    43    1
    50    26    44    1
    51    27    45    1
    52    28    46    1
