@<TRIPOS>MOLECULE
*****
 45 52 0 0 0
SMALL
GASTEIGER

@<TRIPOS>ATOM
      1 SI         -1.4868   -1.1285   -1.0859 Si      1  UNL1        0.0000
      2 C          -2.5417    0.1489   -0.1369 C.2     1  UNL1        0.0000
      3 C          -1.7994    1.0608    0.5256 C.2     1  UNL1        0.0000
      4 C          -0.3696    0.8257    0.3655 C.ar    1  UNL1        0.0000
      5 C           0.0339   -0.2648   -0.4402 C.ar    1  UNL1        0.0000
      6 C           1.3917   -0.6164   -0.6566 C.ar    1  UNL1        0.0000
      7 S           2.0389   -1.9860   -1.4923 S.2     1  UNL1        0.0000
      8 C           3.6791   -1.5186   -1.2201 C.ar    1  UNL1        0.0000
      9 C           4.8393   -2.2477   -1.6139 C.ar    1  UNL1        0.0000
     10 C           6.1341   -1.7424   -1.4257 C.ar    1  UNL1        0.0000
     11 C           6.1331   -0.4544   -0.9092 C.ar    1  UNL1        0.0000
     12 C           7.3098    0.2476   -0.7711 C.ar    1  UNL1        0.0000
     13 S           7.0306    1.8650   -0.2492 S.2     1  UNL1        0.0000
     14 C           5.3235    1.6306   -0.2122 C.ar    1  UNL1        0.0000
     15 C           5.0227    0.3305   -0.5009 C.ar    1  UNL1        0.0000
     16 C           3.7146   -0.2837   -0.5785 C.ar    1  UNL1        0.0000
     17 C           2.4509    0.1461   -0.1418 C.ar    1  UNL1        0.0000
     18 C           2.0697    1.1995    0.7782 C.ar    1  UNL1        0.0000
     19 C           2.7758    1.9637    1.6579 C.ar    1  UNL1        0.0000
     20 O           1.9008    2.7880    2.3188 O.2     1  UNL1        0.0000
     21 C           0.6391    2.4835    1.8816 C.ar    1  UNL1        0.0000
     22 C           0.6963    1.4726    0.9537 C.ar    1  UNL1        0.0000
     23 C          -3.9856    0.1343   -0.2126 C.ar    1  UNL1        0.0000
     24 C          -4.7696    1.0867   -0.9106 C.ar    1  UNL1        0.0000
     25 C          -6.2098    1.0598   -0.9722 C.ar    1  UNL1        0.0000
     26 C          -7.0182    0.0874   -0.3373 C.ar    1  UNL1        0.0000
     27 C          -6.2263   -0.8213    0.3513 C.ar    1  UNL1        0.0000
     28 C          -6.6540   -1.8857    1.0978 C.ar    1  UNL1        0.0000
     29 O          -5.5716   -2.5287    1.6346 O.2     1  UNL1        0.0000
     30 C          -4.4480   -1.8624    1.2231 C.ar    1  UNL1        0.0000
     31 C          -4.8007   -0.8090    0.4182 C.ar    1  UNL1        0.0000
     32 H          -1.6532   -2.4960   -0.5293 H       1  UNL1        0.0000
     33 H          -1.6494   -0.9960   -2.5565 H       1  UNL1        0.0000
     34 H          -2.1949    1.8793    1.1108 H       1  UNL1        0.0000
     35 H           4.7187   -3.2220   -2.0856 H       1  UNL1        0.0000
     36 H           7.0168   -2.2913   -1.7295 H       1  UNL1        0.0000
     37 H           8.3209   -0.0758   -0.9782 H       1  UNL1        0.0000
     38 H           4.6865    2.4782   -0.0182 H       1  UNL1        0.0000
     39 H           3.8037    2.0519    1.9748 H       1  UNL1        0.0000
     40 H          -0.1576    3.0431    2.3512 H       1  UNL1        0.0000
     41 H          -4.2598    1.8921   -1.4419 H       1  UNL1        0.0000
     42 H          -6.7053    1.8447   -1.5458 H       1  UNL1        0.0000
     43 H          -8.0974    0.0806   -0.3877 H       1  UNL1        0.0000
     44 H          -7.6171   -2.3059    1.3498 H       1  UNL1        0.0000
     45 H          -3.5146   -2.2637    1.5915 H       1  UNL1        0.0000
@<TRIPOS>BOND
     1     1     2    1
     2     2     3    2
     3     3     4    1
     4     4     5   ar
     5     5     6   ar
     6     6     7   ar
     7     7     8   ar
     8     8     9   ar
     9     9    10   ar
    10    10    11   ar
    11    11    12   ar
    12    12    13   ar
    13    13    14   ar
    14    14    15   ar
    15    15    16   ar
    16    16    17   ar
    17    17    18   ar
    18    18    19   ar
    19    19    20   ar
    20    20    21   ar
    21    21    22   ar
    22     2    23    1
    23    23    24   ar
    24    24    25   ar
    25    25    26   ar
    26    26    27   ar
    27    27    28   ar
    28    28    29   ar
    29    29    30   ar
    30    30    31   ar
    31     5     1    1
    32    17     6   ar
    33    22    18   ar
    34    31    23   ar
    35    22     4   ar
    36    31    27   ar
    37    16     8   ar
    38    15    11   ar
    39     1    32    1
    40     1    33    1
    41     3    34    1
    42     9    35    1
    43    10    36    1
    44    12    37    1
    45    14    38    1
    46    19    39    1
    47    21    40    1
    48    24    41    1
    49    25    42    1
    50    26    43    1
    51    28    44    1
    52    30    45    1
