@<TRIPOS>MOLECULE
*****
 40 46 0 0 0
SMALL
GASTEIGER

@<TRIPOS>ATOM
      1 SI         -5.0498   -2.2974    2.0425 Si      1  UNL1        0.0000
      2 C          -5.5199   -0.8000    1.0379 C.2     1  UNL1        0.0000
      3 C          -4.4281   -0.2020    0.5254 C.ar    1  UNL1        0.0000
      4 C          -4.3949    0.9620   -0.2903 C.ar    1  UNL1        0.0000
      5 C          -5.3717    1.8308   -0.8119 C.ar    1  UNL1        0.0000
      6 C          -4.6739    2.7792   -1.5347 C.ar    1  UNL1        0.0000
      7 O          -3.3298    2.5433   -1.4869 O.2     1  UNL1        0.0000
      8 C          -3.1758    1.4311   -0.7237 C.ar    1  UNL1        0.0000
      9 C          -1.8590    0.8742   -0.4494 C.ar    1  UNL1        0.0000
     10 C          -0.6890    1.4556   -0.9569 C.ar    1  UNL1        0.0000
     11 C           0.5254    0.8415   -0.6335 C.ar    1  UNL1        0.0000
     12 N           1.8113    1.1829   -0.9834 N.ar    1  UNL1        0.0000
     13 C           2.7202    0.3007   -0.4462 C.ar    1  UNL1        0.0000
     14 C           1.9893   -0.6304    0.2671 C.ar    1  UNL1        0.0000
     15 C           0.6090   -0.3012    0.1570 C.ar    1  UNL1        0.0000
     16 C          -0.5761   -0.8771    0.6618 C.ar    1  UNL1        0.0000
     17 C          -1.8190   -0.2940    0.3627 C.ar    1  UNL1        0.0000
     18 C          -3.1208   -0.8521    0.8656 C.ar    1  UNL1        0.0000
     19 C          -3.2536   -1.9491    1.6430 C.2     1  UNL1        0.0000
     20 C           4.1315    0.4193   -0.6511 C.ar    1  UNL1        0.0000
     21 S           4.8808    1.6771   -1.5933 S.2     1  UNL1        0.0000
     22 C           6.4927    1.0838   -1.3188 C.ar    1  UNL1        0.0000
     23 C           6.3949   -0.0157   -0.5434 C.ar    1  UNL1        0.0000
     24 C           7.2138   -0.9819    0.0598 C.ar    1  UNL1        0.0000
     25 C           6.3287   -1.8345    0.7310 C.ar    1  UNL1        0.0000
     26 O           4.9969   -1.4860    0.6030 O.2     1  UNL1        0.0000
     27 C           5.1184   -0.3764   -0.1815 C.ar    1  UNL1        0.0000
     28 H          -5.3492   -2.1301    3.4848 H       1  UNL1        0.0000
     29 H          -5.5277   -3.5620    1.4340 H       1  UNL1        0.0000
     30 H          -6.5475   -0.4980    0.9164 H       1  UNL1        0.0000
     31 H          -6.4436    1.7862   -0.6875 H       1  UNL1        0.0000
     32 H          -4.9698    3.6436   -2.1125 H       1  UNL1        0.0000
     33 H          -0.7263    2.3464   -1.5756 H       1  UNL1        0.0000
     34 H           2.0575    1.9761   -1.5584 H       1  UNL1        0.0000
     35 H           2.3991   -1.4683    0.8165 H       1  UNL1        0.0000
     36 H          -0.5017   -1.7669    1.2766 H       1  UNL1        0.0000
     37 H          -2.4813   -2.5945    2.0265 H       1  UNL1        0.0000
     38 H           7.3569    1.5784   -1.7385 H       1  UNL1        0.0000
     39 H           8.2897   -1.0760    0.0324 H       1  UNL1        0.0000
     40 H           6.4922   -2.7186    1.3335 H       1  UNL1        0.0000
@<TRIPOS>BOND
     1     1     2    1
     2     2     3    2
     3     3     4   ar
     4     4     5   ar
     5     5     6   ar
     6     6     7   ar
     7     7     8   ar
     8     8     9   ar
     9     9    10   ar
    10    10    11   ar
    11    11    12   ar
    12    12    13   ar
    13    13    14   ar
    14    14    15   ar
    15    15    16   ar
    16    16    17   ar
    17    17    18   ar
    18    18    19    2
    19    13    20    1
    20    20    21   ar
    21    21    22   ar
    22    22    23   ar
    23    23    24   ar
    24    24    25   ar
    25    25    26   ar
    26    26    27   ar
    27    19     1    1
    28    27    20   ar
    29    18     3   ar
    30    27    23   ar
    31     8     4   ar
    32    17     9   ar
    33    15    11   ar
    34     1    28    1
    35     1    29    1
    36     2    30    1
    37     5    31    1
    38     6    32    1
    39    10    33    1
    40    12    34    1
    41    14    35    1
    42    16    36    1
    43    19    37    1
    44    22    38    1
    45    24    39    1
    46    25    40    1
