@<TRIPOS>MOLECULE
*****
 42 48 0 0 0
SMALL
GASTEIGER

@<TRIPOS>ATOM
      1 SI         -4.5949    3.8164    0.2645 Si      1  UNL1        0.0000
      2 C          -5.4034    2.1404    0.1624 C.2     1  UNL1        0.0000
      3 C          -4.4809    1.1657    0.0578 C.ar    1  UNL1        0.0000
      4 C          -4.7220   -0.2323   -0.0418 C.ar    1  UNL1        0.0000
      5 C          -5.8763   -1.0372   -0.0660 C.ar    1  UNL1        0.0000
      6 C          -5.4184   -2.3358   -0.1806 C.ar    1  UNL1        0.0000
      7 O          -4.0542   -2.3741   -0.2278 O.2     1  UNL1        0.0000
      8 C          -3.6449   -1.0832   -0.1422 C.ar    1  UNL1        0.0000
      9 C          -2.2343   -0.7303   -0.1610 C.ar    1  UNL1        0.0000
     10 C          -1.2199   -1.6858   -0.2676 C.ar    1  UNL1        0.0000
     11 C           0.1261   -1.2934   -0.2806 C.ar    1  UNL1        0.0000
     12 C           1.1554   -2.2390   -0.3852 C.ar    1  UNL1        0.0000
     13 C           2.4946   -1.8392   -0.3966 C.ar    1  UNL1        0.0000
     14 C           2.8373   -0.4855   -0.3075 C.ar    1  UNL1        0.0000
     15 C           1.8077    0.4620   -0.2002 C.ar    1  UNL1        0.0000
     16 C           0.4545    0.0783   -0.1863 C.ar    1  UNL1        0.0000
     17 C          -0.5729    1.0346   -0.0788 C.ar    1  UNL1        0.0000
     18 C          -1.9206    0.6522   -0.0646 C.ar    1  UNL1        0.0000
     19 C          -3.0549    1.6299    0.0473 C.ar    1  UNL1        0.0000
     20 C          -2.9262    2.9710    0.1459 C.2     1  UNL1        0.0000
     21 C           4.2442   -0.0850   -0.3099 C.ar    1  UNL1        0.0000
     22 S           4.8123    1.2299   -1.3144 S.2     1  UNL1        0.0000
     23 C           6.4613    1.0655   -0.8063 C.ar    1  UNL1        0.0000
     24 C           6.5145    0.0504    0.0733 C.ar    1  UNL1        0.0000
     25 O           7.6247   -0.4071    0.7127 O.2     1  UNL1        0.0000
     26 C           7.0578   -1.4221    1.4622 C.ar    1  UNL1        0.0000
     27 C           5.6762   -1.5671    1.2807 C.ar    1  UNL1        0.0000
     28 C           5.3239   -0.5769    0.3448 C.ar    1  UNL1        0.0000
     29 H          -4.8822    4.6597   -0.9202 H       1  UNL1        0.0000
     30 H          -4.8011    4.4679    1.5800 H       1  UNL1        0.0000
     31 H          -6.4749    2.0254    0.1881 H       1  UNL1        0.0000
     32 H          -6.9099   -0.7290   -0.0089 H       1  UNL1        0.0000
     33 H          -5.9088   -3.2975   -0.2386 H       1  UNL1        0.0000
     34 H          -1.4843   -2.7386   -0.3403 H       1  UNL1        0.0000
     35 H           0.9232   -3.2994   -0.4620 H       1  UNL1        0.0000
     36 H           3.2671   -2.5994   -0.4902 H       1  UNL1        0.0000
     37 H           2.0597    1.5177   -0.1148 H       1  UNL1        0.0000
     38 H          -0.3059    2.0852   -0.0072 H       1  UNL1        0.0000
     39 H          -2.0237    3.5588    0.1614 H       1  UNL1        0.0000
     40 H           7.2655    1.6915   -1.1636 H       1  UNL1        0.0000
     41 H           7.7664   -1.9549    2.0830 H       1  UNL1        0.0000
     42 H           5.0421   -2.2898    1.7735 H       1  UNL1        0.0000
@<TRIPOS>BOND
     1     1     2    1
     2     2     3    2
     3     3     4   ar
     4     4     5   ar
     5     5     6   ar
     6     6     7   ar
     7     7     8   ar
     8     8     9   ar
     9     9    10   ar
    10    10    11   ar
    11    11    12   ar
    12    12    13   ar
    13    13    14   ar
    14    14    15   ar
    15    15    16   ar
    16    16    17   ar
    17    17    18   ar
    18    18    19   ar
    19    19    20    2
    20    14    21    1
    21    21    22   ar
    22    22    23   ar
    23    23    24   ar
    24    24    25   ar
    25    25    26   ar
    26    26    27   ar
    27    27    28   ar
    28    20     1    1
    29    28    21   ar
    30    19     3   ar
    31    28    24   ar
    32     8     4   ar
    33    18     9   ar
    34    16    11   ar
    35     1    29    1
    36     1    30    1
    37     2    31    1
    38     5    32    1
    39     6    33    1
    40    10    34    1
    41    12    35    1
    42    13    36    1
    43    15    37    1
    44    17    38    1
    45    20    39    1
    46    23    40    1
    47    26    41    1
    48    27    42    1
