@<TRIPOS>MOLECULE
*****
 39 45 0 0 0
SMALL
GASTEIGER

@<TRIPOS>ATOM
      1 SI         -4.8390   -2.5974    0.5257 Si      1  UNL1        0.0000
      2 C          -5.3569   -0.8255    0.2486 C.2     1  UNL1        0.0000
      3 C          -4.2854   -0.0270    0.0789 C.ar    1  UNL1        0.0000
      4 C          -4.3040    1.3881   -0.1560 C.ar    1  UNL1        0.0000
      5 C          -5.3414    2.3344   -0.2778 C.ar    1  UNL1        0.0000
      6 C          -4.7143    3.5433   -0.5006 C.ar    1  UNL1        0.0000
      7 O          -3.3592    3.3970   -0.5227 O.2     1  UNL1        0.0000
      8 C          -3.1097    2.0766   -0.3115 C.ar    1  UNL1        0.0000
      9 C          -1.8469    1.4103   -0.2440 C.ar    1  UNL1        0.0000
     10 O          -0.6094    1.9554   -0.3772 O.2     1  UNL1        0.0000
     11 C           0.2830    0.9330   -0.2376 C.ar    1  UNL1        0.0000
     12 C           1.6643    1.0729   -0.3083 C.ar    1  UNL1        0.0000
     13 C           2.4039   -0.0969   -0.1389 C.ar    1  UNL1        0.0000
     14 N           1.7827   -1.2833    0.0799 N.ar    1  UNL1        0.0000
     15 C           0.4297   -1.3967    0.1451 C.ar    1  UNL1        0.0000
     16 C          -0.3705   -0.2726   -0.0145 C.ar    1  UNL1        0.0000
     17 C          -1.7519    0.0404   -0.0192 C.ar    1  UNL1        0.0000
     18 C          -2.9550   -0.7338    0.1509 C.ar    1  UNL1        0.0000
     19 C          -3.0512   -2.0591    0.3748 C.2     1  UNL1        0.0000
     20 C           3.8878   -0.1227   -0.1855 C.ar    1  UNL1        0.0000
     21 C           4.6896    1.0392   -0.4063 C.ar    1  UNL1        0.0000
     22 C           6.1055    1.0635   -0.4588 C.ar    1  UNL1        0.0000
     23 C           6.8895   -0.0800   -0.2954 C.ar    1  UNL1        0.0000
     24 C           6.1853   -1.2828   -0.0711 C.ar    1  UNL1        0.0000
     25 N           6.7675   -2.4787    0.1080 N.ar    1  UNL1        0.0000
     26 S           5.5406   -3.5667    0.3310 S.2     1  UNL1        0.0000
     27 N           4.2271   -2.5759    0.2111 N.ar    1  UNL1        0.0000
     28 C           4.6638   -1.3219   -0.0125 C.ar    1  UNL1        0.0000
     29 H          -5.1669   -3.0737    1.8899 H       1  UNL1        0.0000
     30 H          -5.2519   -3.4857   -0.5859 H       1  UNL1        0.0000
     31 H          -6.3960   -0.5381    0.2364 H       1  UNL1        0.0000
     32 H          -6.4077    2.1730   -0.2144 H       1  UNL1        0.0000
     33 H          -5.0714    4.5520   -0.6562 H       1  UNL1        0.0000
     34 H           2.0932    2.0468   -0.4851 H       1  UNL1        0.0000
     35 H           0.0506   -2.3949    0.3243 H       1  UNL1        0.0000
     36 H          -2.2573   -2.7802    0.4676 H       1  UNL1        0.0000
     37 H           4.2061    2.0053   -0.5505 H       1  UNL1        0.0000
     38 H           6.6041    2.0174   -0.6346 H       1  UNL1        0.0000
     39 H           7.9715   -0.0547   -0.3367 H       1  UNL1        0.0000
@<TRIPOS>BOND
     1     1     2    1
     2     2     3    2
     3     3     4   ar
     4     4     5   ar
     5     5     6   ar
     6     6     7   ar
     7     7     8   ar
     8     8     9   ar
     9     9    10   ar
    10    10    11   ar
    11    11    12   ar
    12    12    13   ar
    13    13    14   ar
    14    14    15   ar
    15    15    16   ar
    16    16    17   ar
    17    17    18   ar
    18    18    19    2
    19    13    20    1
    20    20    21   ar
    21    21    22   ar
    22    22    23   ar
    23    23    24   ar
    24    24    25   ar
    25    25    26   ar
    26    26    27   ar
    27    27    28   ar
    28    19     1    1
    29    28    20   ar
    30    18     3   ar
    31    28    24   ar
    32     8     4   ar
    33    17     9   ar
    34    16    11   ar
    35     1    29    1
    36     1    30    1
    37     2    31    1
    38     5    32    1
    39     6    33    1
    40    12    34    1
    41    15    35    1
    42    19    36    1
    43    21    37    1
    44    22    38    1
    45    23    39    1
