@<TRIPOS>MOLECULE
*****
 45 52 0 0 0
SMALL
GASTEIGER

@<TRIPOS>ATOM
      1 SI         -4.9192   -1.5837    2.2154 Si      1  UNL1        0.0000
      2 C          -5.4665   -0.1957    1.1056 C.2     1  UNL1        0.0000
      3 C          -4.4429    0.2609    0.3552 C.ar    1  UNL1        0.0000
      4 C          -4.5466    1.2282   -0.7115 C.ar    1  UNL1        0.0000
      5 C          -5.6802    1.9731   -1.1447 C.ar    1  UNL1        0.0000
      6 C          -5.3794    2.7747   -2.2282 C.ar    1  UNL1        0.0000
      7 S          -3.7407    2.6225   -2.7154 S.2     1  UNL1        0.0000
      8 C          -3.4307    1.4971   -1.4852 C.ar    1  UNL1        0.0000
      9 C          -2.1700    0.8794   -1.2018 C.ar    1  UNL1        0.0000
     10 N          -1.0018    1.0461   -1.8920 N.ar    1  UNL1        0.0000
     11 C           0.0197    0.3755   -1.2499 C.ar    1  UNL1        0.0000
     12 C           1.3962    0.2833   -1.5817 C.ar    1  UNL1        0.0000
     13 C           2.2960   -0.4030   -0.7405 C.ar    1  UNL1        0.0000
     14 C           3.7115   -0.4944   -1.0052 C.ar    1  UNL1        0.0000
     15 S           4.3686   -1.4070   -2.3211 S.2     1  UNL1        0.0000
     16 C           6.0141   -0.9904   -1.9282 C.ar    1  UNL1        0.0000
     17 C           5.9828   -0.1835   -0.8479 C.ar    1  UNL1        0.0000
     18 C           6.8356    0.5418    0.0203 C.ar    1  UNL1        0.0000
     19 C           6.0102    1.1899    0.9657 C.ar    1  UNL1        0.0000
     20 N           4.6618    0.9152    0.7449 N.ar    1  UNL1        0.0000
     21 C           4.7320    0.0927   -0.3432 C.ar    1  UNL1        0.0000
     22 C           1.6883   -0.9194    0.4087 C.ar    1  UNL1        0.0000
     23 C           2.3174   -1.5928    1.4353 C.ar    1  UNL1        0.0000
     24 N           1.3735   -1.8705    2.4036 N.ar    1  UNL1        0.0000
     25 C           0.1410   -1.3826    2.0204 C.ar    1  UNL1        0.0000
     26 C           0.3249   -0.8560    0.7764 C.ar    1  UNL1        0.0000
     27 C          -0.5764   -0.2068   -0.1290 C.ar    1  UNL1        0.0000
     28 C          -1.9643    0.0034   -0.1396 C.ar    1  UNL1        0.0000
     29 C          -3.1146   -0.4094    0.6248 C.ar    1  UNL1        0.0000
     30 C          -3.2089   -1.4341    1.4941 C.2     1  UNL1        0.0000
     31 H          -5.5700   -2.8716    1.8760 H       1  UNL1        0.0000
     32 H          -4.9617   -1.2143    3.6507 H       1  UNL1        0.0000
     33 H          -6.4992    0.1089    1.0582 H       1  UNL1        0.0000
     34 H          -6.6655    1.9292   -0.6988 H       1  UNL1        0.0000
     35 H          -6.0418    3.4423   -2.7617 H       1  UNL1        0.0000
     36 H          -0.8952    1.6117   -2.7221 H       1  UNL1        0.0000
     37 H           1.7665    0.7644   -2.4846 H       1  UNL1        0.0000
     38 H           6.8451   -1.3580   -2.5118 H       1  UNL1        0.0000
     39 H           7.9150    0.6059   -0.0146 H       1  UNL1        0.0000
     40 H           6.2831    1.8368    1.7895 H       1  UNL1        0.0000
     41 H           3.8273    1.2163    1.2357 H       1  UNL1        0.0000
     42 H           3.3471   -1.8924    1.5818 H       1  UNL1        0.0000
     43 H           1.5650   -2.3388    3.2798 H       1  UNL1        0.0000
     44 H          -0.6984   -1.4501    2.6924 H       1  UNL1        0.0000
     45 H          -2.4487   -2.1454    1.7574 H       1  UNL1        0.0000
@<TRIPOS>BOND
     1     1     2    1
     2     2     3    2
     3     3     4   ar
     4     4     5   ar
     5     5     6   ar
     6     6     7   ar
     7     7     8   ar
     8     8     9   ar
     9     9    10   ar
    10    10    11   ar
    11    11    12   ar
    12    12    13   ar
    13    13    14    1
    14    14    15   ar
    15    15    16   ar
    16    16    17   ar
    17    17    18   ar
    18    18    19   ar
    19    19    20   ar
    20    20    21   ar
    21    13    22   ar
    22    22    23   ar
    23    23    24   ar
    24    24    25   ar
    25    25    26   ar
    26    26    27   ar
    27    27    28   ar
    28    28    29   ar
    29    29    30    2
    30    30     1    1
    31    29     3   ar
    32     8     4   ar
    33    28     9   ar
    34    27    11   ar
    35    21    14   ar
    36    26    22   ar
    37    21    17   ar
    38     1    31    1
    39     1    32    1
    40     2    33    1
    41     5    34    1
    42     6    35    1
    43    10    36    1
    44    12    37    1
    45    16    38    1
    46    18    39    1
    47    19    40    1
    48    20    41    1
    49    23    42    1
    50    24    43    1
    51    25    44    1
    52    30    45    1
