@<TRIPOS>MOLECULE
*****
 37 43 0 0 0
SMALL
GASTEIGER

@<TRIPOS>ATOM
      1 SI         -2.6164   -1.6581   -3.2143 Si      1  UNL1        0.0000
      2 C          -3.8170   -0.9151   -2.0201 C.2     1  UNL1        0.0000
      3 C          -3.1942   -0.3556   -0.9625 C.ar    1  UNL1        0.0000
      4 C          -3.8523    0.2973    0.1279 C.ar    1  UNL1        0.0000
      5 C          -5.2551    0.4807    0.3080 C.ar    1  UNL1        0.0000
      6 C          -5.5348    1.1540    1.4738 C.ar    1  UNL1        0.0000
      7 S          -4.1167    1.5537    2.3304 S.2     1  UNL1        0.0000
      8 C          -3.0964    0.8339    1.1587 C.ar    1  UNL1        0.0000
      9 C          -1.6202    0.7834    1.2222 C.ar    1  UNL1        0.0000
     10 C          -0.8655    1.3415    2.2911 C.ar    1  UNL1        0.0000
     11 N          -1.3082    1.9879    3.3923 N.ar    1  UNL1        0.0000
     12 S           0.0093    2.4272    4.3087 S.2     1  UNL1        0.0000
     13 N           1.2384    1.8199    3.3584 N.ar    1  UNL1        0.0000
     14 C           0.5803    1.2841    2.3392 C.ar    1  UNL1        0.0000
     15 C           1.2687    0.6376    1.2633 C.ar    1  UNL1        0.0000
     16 C           2.6757    0.5312    1.2205 C.ar    1  UNL1        0.0000
     17 C           3.0856   -0.1337    0.0829 C.ar    1  UNL1        0.0000
     18 S           1.7309   -0.5872   -0.8626 S.2     1  UNL1        0.0000
     19 C           0.5441    0.0891    0.2146 C.ar    1  UNL1        0.0000
     20 C          -0.8881    0.1400    0.1563 C.ar    1  UNL1        0.0000
     21 C          -1.6975   -0.4488   -0.9727 C.ar    1  UNL1        0.0000
     22 C          -1.2470   -1.0945   -2.0720 C.2     1  UNL1        0.0000
     23 C           4.4539   -0.4536   -0.3428 C.ar    1  UNL1        0.0000
     24 N           5.4310   -0.0504    0.4741 N.ar    1  UNL1        0.0000
     25 C           6.6534   -0.3594    0.0524 C.ar    1  UNL1        0.0000
     26 N           6.9541   -1.0091   -1.0694 N.ar    1  UNL1        0.0000
     27 C           5.8941   -1.3562   -1.7954 C.ar    1  UNL1        0.0000
     28 N           4.6235   -1.1109   -1.4920 N.ar    1  UNL1        0.0000
     29 H          -2.5910   -0.9508   -4.5166 H       1  UNL1        0.0000
     30 H          -2.7187   -3.1350   -3.2859 H       1  UNL1        0.0000
     31 H          -4.8779   -0.9579   -2.2061 H       1  UNL1        0.0000
     32 H          -6.0259    0.1424   -0.3725 H       1  UNL1        0.0000
     33 H          -6.5044    1.4306    1.8642 H       1  UNL1        0.0000
     34 H           3.3637    0.9122    1.9679 H       1  UNL1        0.0000
     35 H          -0.2475   -1.3277   -2.3822 H       1  UNL1        0.0000
     36 H           7.4830   -0.0537    0.6811 H       1  UNL1        0.0000
     37 H           6.0849   -1.8889   -2.7210 H       1  UNL1        0.0000
@<TRIPOS>BOND
     1     1     2    1
     2     2     3    2
     3     3     4   ar
     4     4     5   ar
     5     5     6   ar
     6     6     7   ar
     7     7     8   ar
     8     8     9   ar
     9     9    10   ar
    10    10    11   ar
    11    11    12   ar
    12    12    13   ar
    13    13    14   ar
    14    14    15   ar
    15    15    16   ar
    16    16    17   ar
    17    17    18   ar
    18    18    19   ar
    19    19    20   ar
    20    20    21   ar
    21    21    22    2
    22    17    23    1
    23    23    24   ar
    24    24    25   ar
    25    25    26   ar
    26    26    27   ar
    27    27    28   ar
    28    22     1    1
    29    28    23   ar
    30    21     3   ar
    31     8     4   ar
    32    20     9   ar
    33    14    10   ar
    34    19    15   ar
    35     1    29    1
    36     1    30    1
    37     2    31    1
    38     5    32    1
    39     6    33    1
    40    16    34    1
    41    22    35    1
    42    25    36    1
    43    27    37    1
