@<TRIPOS>MOLECULE
*****
 43 50 0 0 0
SMALL
GASTEIGER

@<TRIPOS>ATOM
      1 SI         -4.8693   -0.8936    3.0521 Si      1  UNL1        0.0000
      2 C          -5.5126   -0.3123    1.4063 C.2     1  UNL1        0.0000
      3 C          -4.5109   -0.1404    0.5200 C.ar    1  UNL1        0.0000
      4 C          -4.6713    0.1514   -0.8837 C.ar    1  UNL1        0.0000
      5 C          -5.8615    0.4222   -1.6174 C.ar    1  UNL1        0.0000
      6 C          -5.5991    0.6169   -2.9593 C.ar    1  UNL1        0.0000
      7 S          -3.9280    0.4698   -3.3238 S.2     1  UNL1        0.0000
      8 C          -3.5547    0.1535   -1.7012 C.ar    1  UNL1        0.0000
      9 C          -2.2386   -0.0609   -1.1724 C.ar    1  UNL1        0.0000
     10 O          -1.0759   -0.0945   -1.8860 O.2     1  UNL1        0.0000
     11 C          -0.0590   -0.2199   -0.9836 C.ar    1  UNL1        0.0000
     12 C           1.3042   -0.2938   -1.3198 C.ar    1  UNL1        0.0000
     13 C           2.2684   -0.3582   -0.2943 C.ar    1  UNL1        0.0000
     14 C           3.6903   -0.4172   -0.5709 C.ar    1  UNL1        0.0000
     15 S           4.3818   -1.8093   -1.3580 S.2     1  UNL1        0.0000
     16 C           5.9971   -1.1674   -1.3304 C.ar    1  UNL1        0.0000
     17 C           5.9480    0.0466   -0.7467 C.ar    1  UNL1        0.0000
     18 N           6.9926    0.8962   -0.5284 N.ar    1  UNL1        0.0000
     19 C           6.3453    1.9669    0.0870 C.ar    1  UNL1        0.0000
     20 C           4.9589    1.7333    0.2155 C.ar    1  UNL1        0.0000
     21 C           4.6985    0.4526   -0.3374 C.ar    1  UNL1        0.0000
     22 C           1.7345   -0.2887    1.0073 C.ar    1  UNL1        0.0000
     23 C           2.5052   -0.2917    2.1532 C.ar    1  UNL1        0.0000
     24 S           1.5639   -0.0902    3.5824 S.2     1  UNL1        0.0000
     25 C           0.0950   -0.0159    2.6896 C.ar    1  UNL1        0.0000
     26 C           0.3526   -0.2067    1.3645 C.ar    1  UNL1        0.0000
     27 C          -0.5982   -0.2316    0.2920 C.ar    1  UNL1        0.0000
     28 C          -1.9960   -0.2529    0.1924 C.ar    1  UNL1        0.0000
     29 C          -3.1286   -0.3983    1.0713 C.ar    1  UNL1        0.0000
     30 C          -3.1458   -0.8777    2.3307 C.2     1  UNL1        0.0000
     31 H          -5.0379    0.1213    4.1187 H       1  UNL1        0.0000
     32 H          -5.3260   -2.2624    3.3888 H       1  UNL1        0.0000
     33 H          -6.5710   -0.2205    1.2231 H       1  UNL1        0.0000
     34 H          -6.8589    0.4697   -1.1995 H       1  UNL1        0.0000
     35 H          -6.3054    0.8362   -3.7481 H       1  UNL1        0.0000
     36 H           1.5999   -0.2850   -2.3648 H       1  UNL1        0.0000
     37 H           6.8422   -1.7068   -1.7336 H       1  UNL1        0.0000
     38 H           7.9681    0.7611   -0.7638 H       1  UNL1        0.0000
     39 H           6.9287    2.8277    0.3881 H       1  UNL1        0.0000
     40 H           4.2460    2.4179    0.6563 H       1  UNL1        0.0000
     41 H           3.5791   -0.3746    2.2517 H       1  UNL1        0.0000
     42 H          -0.8256    0.1902    3.2087 H       1  UNL1        0.0000
     43 H          -2.3264   -1.2632    2.9096 H       1  UNL1        0.0000
@<TRIPOS>BOND
     1     1     2    1
     2     2     3    2
     3     3     4   ar
     4     4     5   ar
     5     5     6   ar
     6     6     7   ar
     7     7     8   ar
     8     8     9   ar
     9     9    10   ar
    10    10    11   ar
    11    11    12   ar
    12    12    13   ar
    13    13    14    1
    14    14    15   ar
    15    15    16   ar
    16    16    17   ar
    17    17    18   ar
    18    18    19   ar
    19    19    20   ar
    20    20    21   ar
    21    13    22   ar
    22    22    23   ar
    23    23    24   ar
    24    24    25   ar
    25    25    26   ar
    26    26    27   ar
    27    27    28   ar
    28    28    29   ar
    29    29    30    2
    30    30     1    1
    31    29     3   ar
    32     8     4   ar
    33    28     9   ar
    34    27    11   ar
    35    21    14   ar
    36    26    22   ar
    37    21    17   ar
    38     1    31    1
    39     1    32    1
    40     2    33    1
    41     5    34    1
    42     6    35    1
    43    12    36    1
    44    16    37    1
    45    18    38    1
    46    19    39    1
    47    20    40    1
    48    23    41    1
    49    25    42    1
    50    30    43    1
