@<TRIPOS>MOLECULE
*****
 36 41 0 0 0
SMALL
GASTEIGER

@<TRIPOS>ATOM
      1 SI         -6.0039    0.1318   -1.4279 Si      1  UNL1        0.0000
      2 C          -5.8550    0.0349    0.4384 C.2     1  UNL1        0.0000
      3 C          -4.5612    0.0030    0.8120 C.ar    1  UNL1        0.0000
      4 C          -4.0978   -0.0727    2.2010 C.ar    1  UNL1        0.0000
      5 C          -2.7765   -0.1002    2.4837 C.ar    1  UNL1        0.0000
      6 C          -1.8921   -0.0522    1.3741 C.ar    1  UNL1        0.0000
      7 N          -0.5320   -0.0712    1.4837 N.ar    1  UNL1        0.0000
      8 C           0.0328   -0.0122    0.2219 C.ar    1  UNL1        0.0000
      9 C          -1.0066    0.0451   -0.6983 C.ar    1  UNL1        0.0000
     10 C          -2.2100    0.0196    0.0327 C.ar    1  UNL1        0.0000
     11 C          -3.5898    0.0514   -0.3230 C.ar    1  UNL1        0.0000
     12 C          -4.1386    0.1196   -1.5491 C.2     1  UNL1        0.0000
     13 C           1.4500   -0.0155    0.0159 C.ar    1  UNL1        0.0000
     14 C           2.4848   -0.0725    0.9361 C.ar    1  UNL1        0.0000
     15 C           3.6563   -0.0452    0.1774 C.ar    1  UNL1        0.0000
     16 C           3.3928    0.0261   -1.1742 C.ar    1  UNL1        0.0000
     17 C           4.3837    0.0673   -2.1711 C.ar    1  UNL1        0.0000
     18 C           5.7409    0.0349   -1.7940 C.ar    1  UNL1        0.0000
     19 C           6.0327   -0.0384   -0.4102 C.ar    1  UNL1        0.0000
     20 N           7.2612   -0.0785    0.1430 N.ar    1  UNL1        0.0000
     21 S           7.0356   -0.1609    1.8044 S.2     1  UNL1        0.0000
     22 N           5.3590   -0.1493    1.8978 N.ar    1  UNL1        0.0000
     23 C           5.0114   -0.0810    0.6223 C.ar    1  UNL1        0.0000
     24 N           2.0148    0.0432   -1.2469 N.ar    1  UNL1        0.0000
     25 H          -6.5927    1.4155   -1.8803 H       1  UNL1        0.0000
     26 H          -6.6175   -1.0870   -2.0083 H       1  UNL1        0.0000
     27 H          -6.7246    0.0109    1.0749 H       1  UNL1        0.0000
     28 H          -4.8365   -0.1060    2.9942 H       1  UNL1        0.0000
     29 H          -2.4135   -0.1560    3.5035 H       1  UNL1        0.0000
     30 H          -0.0101   -0.1205    2.3468 H       1  UNL1        0.0000
     31 H          -0.9111    0.0992   -1.7732 H       1  UNL1        0.0000
     32 H          -3.6249    0.1629   -2.4950 H       1  UNL1        0.0000
     33 H           2.4018   -0.1265    2.0130 H       1  UNL1        0.0000
     34 H           4.1148    0.1234   -3.2230 H       1  UNL1        0.0000
     35 H           6.5363    0.0646   -2.5300 H       1  UNL1        0.0000
     36 H           1.4858    0.0921   -2.1052 H       1  UNL1        0.0000
@<TRIPOS>BOND
     1     1     2    1
     2     2     3    2
     3     3     4   ar
     4     4     5   ar
     5     5     6   ar
     6     6     7   ar
     7     7     8   ar
     8     8     9   ar
     9     9    10   ar
    10    10    11   ar
    11    11    12    2
    12     8    13    1
    13    13    14   ar
    14    14    15   ar
    15    15    16   ar
    16    16    17   ar
    17    17    18   ar
    18    18    19   ar
    19    19    20   ar
    20    20    21   ar
    21    21    22   ar
    22    22    23   ar
    23    16    24   ar
    24    12     1    1
    25    24    13   ar
    26    11     3   ar
    27    23    15   ar
    28    10     6   ar
    29    23    19   ar
    30     1    25    1
    31     1    26    1
    32     2    27    1
    33     4    28    1
    34     5    29    1
    35     7    30    1
    36     9    31    1
    37    12    32    1
    38    14    33    1
    39    17    34    1
    40    18    35    1
    41    24    36    1
