@<TRIPOS>MOLECULE
*****
 45 51 0 0 0
SMALL
GASTEIGER

@<TRIPOS>ATOM
      1 SI         -6.6730    0.8144    0.8342 Si      1  UNL1        0.0000
      2 C          -6.6062   -0.6551   -0.3122 C.2     1  UNL1        0.0000
      3 C          -5.3312   -0.9838   -0.5969 C.ar    1  UNL1        0.0000
      4 C          -4.9597   -2.1597   -1.3812 C.ar    1  UNL1        0.0000
      5 C          -3.6621   -2.4862   -1.5430 C.ar    1  UNL1        0.0000
      6 C          -2.7083   -1.6048   -0.9678 C.ar    1  UNL1        0.0000
      7 N          -1.3642   -1.8398   -1.0567 N.ar    1  UNL1        0.0000
      8 C          -0.6578   -0.7923   -0.4875 C.ar    1  UNL1        0.0000
      9 C          -1.6447    0.1013   -0.0568 C.ar    1  UNL1        0.0000
     10 C          -1.1656    1.3388    0.4679 C.ar    1  UNL1        0.0000
     11 C          -1.7934    2.4851    0.8433 C.ar    1  UNL1        0.0000
     12 O          -0.8399    3.3805    1.2569 O.2     1  UNL1        0.0000
     13 C           0.3807    2.7803    1.0970 C.ar    1  UNL1        0.0000
     14 C           0.2276    1.5136    0.5810 C.ar    1  UNL1        0.0000
     15 C           1.2613    0.6232    0.2244 C.ar    1  UNL1        0.0000
     16 C           2.6559    0.8276    0.3580 C.ar    1  UNL1        0.0000
     17 C           3.5675   -0.1488   -0.0735 C.ar    1  UNL1        0.0000
     18 C           3.0572   -1.3288   -0.6445 C.ar    1  UNL1        0.0000
     19 C           1.6789   -1.5453   -0.7838 C.ar    1  UNL1        0.0000
     20 C           0.7579   -0.5762   -0.3504 C.ar    1  UNL1        0.0000
     21 C           5.0158    0.0568    0.0646 C.ar    1  UNL1        0.0000
     22 C           5.8872   -0.0635   -1.0254 C.ar    1  UNL1        0.0000
     23 C           7.2559    0.1424   -0.8590 C.ar    1  UNL1        0.0000
     24 C           7.7228    0.4654    0.4032 C.ar    1  UNL1        0.0000
     25 N           6.9268    0.5916    1.4844 N.ar    1  UNL1        0.0000
     26 C           5.6012    0.3841    1.2891 C.ar    1  UNL1        0.0000
     27 C          -2.9252   -0.4267   -0.2610 C.ar    1  UNL1        0.0000
     28 C          -4.2915   -0.0921    0.0191 C.ar    1  UNL1        0.0000
     29 C          -4.8029    0.8440    0.8389 C.2     1  UNL1        0.0000
     30 H          -7.2552    2.0141    0.1859 H       1  UNL1        0.0000
     31 H          -7.2373    0.4715    2.1617 H       1  UNL1        0.0000
     32 H          -7.5010   -1.1677   -0.6266 H       1  UNL1        0.0000
     33 H          -5.7454   -2.7793   -1.7996 H       1  UNL1        0.0000
     34 H          -3.3665   -3.3660   -2.1032 H       1  UNL1        0.0000
     35 H          -0.9407   -2.6415   -1.4996 H       1  UNL1        0.0000
     36 H          -2.8023    2.8600    0.8658 H       1  UNL1        0.0000
     37 H           1.2276    3.3924    1.3723 H       1  UNL1        0.0000
     38 H           3.0236    1.7573    0.7859 H       1  UNL1        0.0000
     39 H           3.7406   -2.1085   -0.9784 H       1  UNL1        0.0000
     40 H           1.3485   -2.4806   -1.2253 H       1  UNL1        0.0000
     41 H           5.5029   -0.3047   -2.0138 H       1  UNL1        0.0000
     42 H           7.9394    0.0569   -1.6962 H       1  UNL1        0.0000
     43 H           8.7802    0.6370    0.5830 H       1  UNL1        0.0000
     44 H           4.9981    0.4847    2.1887 H       1  UNL1        0.0000
     45 H          -4.2834    1.5285    1.4804 H       1  UNL1        0.0000
@<TRIPOS>BOND
     1     1     2    1
     2     2     3    2
     3     3     4   ar
     4     4     5   ar
     5     5     6   ar
     6     6     7   ar
     7     7     8   ar
     8     8     9   ar
     9     9    10   ar
    10    10    11   ar
    11    11    12   ar
    12    12    13   ar
    13    13    14   ar
    14    14    15   ar
    15    15    16   ar
    16    16    17   ar
    17    17    18   ar
    18    18    19   ar
    19    19    20   ar
    20    17    21    1
    21    21    22   ar
    22    22    23   ar
    23    23    24   ar
    24    24    25   ar
    25    25    26   ar
    26     9    27   ar
    27    27    28   ar
    28    28    29    2
    29    29     1    1
    30    28     3   ar
    31    27     6   ar
    32    20     8   ar
    33    26    21   ar
    34    14    10   ar
    35    20    15   ar
    36     1    30    1
    37     1    31    1
    38     2    32    1
    39     4    33    1
    40     5    34    1
    41     7    35    1
    42    11    36    1
    43    13    37    1
    44    16    38    1
    45    18    39    1
    46    19    40    1
    47    22    41    1
    48    23    42    1
    49    24    43    1
    50    26    44    1
    51    29    45    1
