@<TRIPOS>MOLECULE
*****
 40 45 0 0 0
SMALL
GASTEIGER

@<TRIPOS>ATOM
      1 SI         -6.4852    0.6113   -1.4257 Si      1  UNL1        0.0000
      2 C          -6.4496   -0.0360    0.3296 C.2     1  UNL1        0.0000
      3 C          -5.1822   -0.2209    0.7466 C.ar    1  UNL1        0.0000
      4 C          -4.8189   -0.7191    2.0745 C.ar    1  UNL1        0.0000
      5 C          -3.5223   -0.8769    2.4153 C.ar    1  UNL1        0.0000
      6 C          -2.5619   -0.5366    1.4267 C.ar    1  UNL1        0.0000
      7 N          -1.2177   -0.6437    1.6270 N.ar    1  UNL1        0.0000
      8 C          -0.5500   -0.2407    0.4877 C.ar    1  UNL1        0.0000
      9 C           0.8007   -0.1623    0.1834 C.ar    1  UNL1        0.0000
     10 SI          2.2949   -0.5547    1.1554 Si      1  UNL1        0.0000
     11 C           3.3641   -0.0348   -0.3469 C.2     1  UNL1        0.0000
     12 C           2.5770    0.3693   -1.3695 C.2     1  UNL1        0.0000
     13 C           1.1330    0.2989   -1.0910 C.ar    1  UNL1        0.0000
     14 N           0.2511    0.6696   -2.0308 N.ar    1  UNL1        0.0000
     15 C          -1.0714    0.5895   -1.7268 C.ar    1  UNL1        0.0000
     16 C          -1.5123    0.1364   -0.4698 C.ar    1  UNL1        0.0000
     17 C          -2.7768   -0.0592    0.1454 C.ar    1  UNL1        0.0000
     18 C          -4.1351    0.1259   -0.2656 C.ar    1  UNL1        0.0000
     19 C          -4.6142    0.5709   -1.4418 C.2     1  UNL1        0.0000
     20 C           4.8020   -0.0583   -0.2899 C.2     1  UNL1        0.0000
     21 C           5.6096   -1.0006    0.2448 C.2     1  UNL1        0.0000
     22 C           7.0378   -0.7289    0.1799 C.2     1  UNL1        0.0000
     23 C           7.3795    0.4364   -0.3969 C.2     1  UNL1        0.0000
     24 SI          5.8637    1.3880   -0.9662 Si      1  UNL1        0.0000
     25 H          -7.0219    1.9910   -1.5067 H       1  UNL1        0.0000
     26 H          -7.0803   -0.3616   -2.3730 H       1  UNL1        0.0000
     27 H          -7.3567   -0.2174    0.8832 H       1  UNL1        0.0000
     28 H          -5.6112   -0.9577    2.7757 H       1  UNL1        0.0000
     29 H          -3.2346   -1.2445    3.3938 H       1  UNL1        0.0000
     30 H          -0.7763   -0.9675    2.4760 H       1  UNL1        0.0000
     31 H           2.4805    0.3426    2.3249 H       1  UNL1        0.0000
     32 H           2.4264   -2.0005    1.4747 H       1  UNL1        0.0000
     33 H           2.9090    0.7162   -2.3379 H       1  UNL1        0.0000
     34 H          -1.7509    0.8963   -2.5122 H       1  UNL1        0.0000
     35 H          -4.0628    0.8778   -2.3130 H       1  UNL1        0.0000
     36 H           5.2637   -1.9245    0.6930 H       1  UNL1        0.0000
     37 H           7.7556   -1.4370    0.5760 H       1  UNL1        0.0000
     38 H           8.3763    0.8208   -0.5436 H       1  UNL1        0.0000
     39 H           5.6708    2.6389   -0.1902 H       1  UNL1        0.0000
     40 H           5.7967    1.5035   -2.4447 H       1  UNL1        0.0000
@<TRIPOS>BOND
     1     1     2    1
     2     2     3    2
     3     3     4   ar
     4     4     5   ar
     5     5     6   ar
     6     6     7   ar
     7     7     8   ar
     8     8     9   ar
     9     9    10    1
    10    10    11    1
    11    11    12    2
    12    12    13    1
    13    13    14   ar
    14    14    15   ar
    15    15    16   ar
    16    16    17   ar
    17    17    18   ar
    18    18    19    2
    19    11    20    1
    20    20    21    2
    21    21    22    1
    22    22    23    2
    23    23    24    1
    24    19     1    1
    25    24    20    1
    26    18     3   ar
    27    17     6   ar
    28    16     8   ar
    29    13     9   ar
    30     1    25    1
    31     1    26    1
    32     2    27    1
    33     4    28    1
    34     5    29    1
    35     7    30    1
    36    10    31    1
    37    10    32    1
    38    12    33    1
    39    15    34    1
    40    19    35    1
    41    21    36    1
    42    22    37    1
    43    23    38    1
    44    24    39    1
    45    24    40    1
