@<TRIPOS>MOLECULE
*****
 39 45 0 0 0
SMALL
GASTEIGER

@<TRIPOS>ATOM
      1 SI         -6.9581   -0.6042    0.6084 Si      1  UNL1        0.0000
      2 C          -6.4208   -0.0411   -1.0996 C.2     1  UNL1        0.0000
      3 C          -5.0796    0.0652   -1.1666 C.ar    1  UNL1        0.0000
      4 C          -4.3362    0.4824   -2.3611 C.ar    1  UNL1        0.0000
      5 C          -2.9866    0.5641   -2.3470 C.ar    1  UNL1        0.0000
      6 C          -2.3397    0.2273   -1.1259 C.ar    1  UNL1        0.0000
      7 N          -0.9740    0.2660   -0.9700 N.ar    1  UNL1        0.0000
      8 C          -0.7837   -0.1178    0.3090 C.ar    1  UNL1        0.0000
      9 C           0.3599   -0.2605    1.0046 C.ar    1  UNL1        0.0000
     10 O           1.5925   -0.0374    0.5360 O.2     1  UNL1        0.0000
     11 C           2.3994   -0.3260    1.6337 C.ar    1  UNL1        0.0000
     12 C           1.6294   -0.7165    2.7385 C.ar    1  UNL1        0.0000
     13 C           0.2947   -0.6624    2.2899 C.ar    1  UNL1        0.0000
     14 S          -1.3984   -0.8595    2.5794 S.2     1  UNL1        0.0000
     15 C          -1.9308   -0.4033    0.9960 C.ar    1  UNL1        0.0000
     16 C          -2.9585   -0.1792    0.0603 C.ar    1  UNL1        0.0000
     17 C          -4.3715   -0.2823    0.1024 C.ar    1  UNL1        0.0000
     18 C          -5.1633   -0.6494    1.1249 C.2     1  UNL1        0.0000
     19 C           3.8362   -0.2085    1.5476 C.ar    1  UNL1        0.0000
     20 S           4.8824   -0.5536    2.8872 S.2     1  UNL1        0.0000
     21 C           6.3168   -0.1901    1.9992 C.ar    1  UNL1        0.0000
     22 C           6.0080    0.1830    0.7204 C.ar    1  UNL1        0.0000
     23 C           6.8556    0.5700   -0.3654 C.2     1  UNL1        0.0000
     24 C           6.2063    0.8799   -1.5087 C.2     1  UNL1        0.0000
     25 SI          4.3090    0.6965   -1.3022 Si      1  UNL1        0.0000
     26 C           4.6065    0.1672    0.4832 C.ar    1  UNL1        0.0000
     27 H          -7.7317    0.4398    1.3229 H       1  UNL1        0.0000
     28 H          -7.5790   -1.9506    0.5829 H       1  UNL1        0.0000
     29 H          -7.1374    0.1548   -1.8807 H       1  UNL1        0.0000
     30 H          -4.8955    0.7245   -3.2584 H       1  UNL1        0.0000
     31 H          -2.4273    0.8710   -3.2235 H       1  UNL1        0.0000
     32 H          -0.2484    0.5166   -1.6304 H       1  UNL1        0.0000
     33 H           1.9876   -0.9969    3.7180 H       1  UNL1        0.0000
     34 H          -4.8584   -0.9374    2.1179 H       1  UNL1        0.0000
     35 H           7.2862   -0.2734    2.4701 H       1  UNL1        0.0000
     36 H           7.9344    0.6080   -0.2673 H       1  UNL1        0.0000
     37 H           6.6324    1.1950   -2.4473 H       1  UNL1        0.0000
     38 H           3.7964   -0.3768   -2.1911 H       1  UNL1        0.0000
     39 H           3.6450    2.0155   -1.4568 H       1  UNL1        0.0000
@<TRIPOS>BOND
     1     1     2    1
     2     2     3    2
     3     3     4   ar
     4     4     5   ar
     5     5     6   ar
     6     6     7   ar
     7     7     8   ar
     8     8     9   ar
     9     9    10   ar
    10    10    11   ar
    11    11    12   ar
    12    12    13   ar
    13    13    14   ar
    14    14    15   ar
    15    15    16   ar
    16    16    17   ar
    17    17    18    2
    18    11    19    1
    19    19    20   ar
    20    20    21   ar
    21    21    22   ar
    22    22    23    1
    23    23    24    2
    24    24    25    1
    25    25    26    1
    26    18     1    1
    27    26    19   ar
    28    17     3   ar
    29    26    22   ar
    30    16     6   ar
    31    15     8   ar
    32    13     9   ar
    33     1    27    1
    34     1    28    1
    35     2    29    1
    36     4    30    1
    37     5    31    1
    38     7    32    1
    39    12    33    1
    40    18    34    1
    41    21    35    1
    42    23    36    1
    43    24    37    1
    44    25    38    1
    45    25    39    1
