@<TRIPOS>MOLECULE
*****
 35 41 0 0 0
SMALL
GASTEIGER

@<TRIPOS>ATOM
      1 S          -0.3192    1.6084    1.4509 S.2     1  UNL1       -0.0875
      2 C          -0.7034    0.3804    0.2907 C.ar    1  UNL1        0.0310
      3 C           0.4998   -0.1987   -0.1409 C.ar    1  UNL1        0.0263
      4 C           1.6631    0.3538    0.4637 C.ar    1  UNL1        0.0082
      5 C           1.3714    1.3683    1.3713 C.ar    1  UNL1        0.0212
      6 C           2.3381    2.1034    2.1273 C.ar    1  UNL1       -0.0468
      7 C           3.7112    1.8649    2.0228 C.ar    1  UNL1       -0.0515
      8 C           3.9746    0.8574    1.1193 C.ar    1  UNL1        0.0001
      9 C           5.2529    0.4363    0.8391 C.ar    1  UNL1        0.0094
     10 N           5.1543   -0.5697   -0.0933 N.ar    1  UNL1       -0.3659
     11 C           3.8280   -0.7937   -0.4097 C.ar    1  UNL1        0.0100
     12 C           3.0895    0.0824    0.3335 C.ar    1  UNL1        0.0083
     13 C           0.3955   -1.2594   -1.1239 C.ar    1  UNL1        0.1093
     14 N           1.4348   -1.9008   -1.6265 N.ar    1  UNL1       -0.1901
     15 S           0.7887   -2.9987   -2.6889 S.2     1  UNL1        0.1165
     16 N          -0.8242   -2.6530   -2.5059 N.ar    1  UNL1       -0.1901
     17 C          -0.9237   -1.6553   -1.5977 C.ar    1  UNL1        0.1082
     18 C          -2.1385   -1.0678   -1.1594 C.ar    1  UNL1        0.0120
     19 C          -3.3954   -1.5393   -1.6974 C.ar    1  UNL1       -0.0513
     20 C          -4.6460   -1.0251   -1.3293 C.ar    1  UNL1       -0.0529
     21 C          -4.5247   -0.0104   -0.3870 C.ar    1  UNL1       -0.0102
     22 C          -5.6444    0.6198    0.0985 C.ar    1  UNL1       -0.0166
     23 S          -5.2317    1.8233    1.2385 S.2     1  UNL1       -0.1039
     24 C          -3.5504    1.4932    1.0755 C.ar    1  UNL1       -0.0160
     25 C          -3.2747    0.4876    0.1747 C.ar    1  UNL1       -0.0020
     26 C          -1.9936   -0.0195   -0.1843 C.ar    1  UNL1        0.0068
     27 H           1.9947    2.8789    2.8110 H       1  UNL1        0.0629
     28 H           4.4509    2.4139    2.5888 H       1  UNL1        0.0624
     29 H           6.2195    0.7511    1.2089 H       1  UNL1        0.0813
     30 H           5.9350   -1.0747   -0.4920 H       1  UNL1        0.1648
     31 H           3.6043   -1.5591   -1.1315 H       1  UNL1        0.0813
     32 H          -3.3820   -2.3441   -2.4355 H       1  UNL1        0.0624
     33 H          -5.5751   -1.3929   -1.7447 H       1  UNL1        0.0624
     34 H          -6.6825    0.4443   -0.1493 H       1  UNL1        0.0699
     35 H          -2.8967    2.0947    1.6826 H       1  UNL1        0.0700
@<TRIPOS>BOND
     1     1     2   ar
     2     2     3   ar
     3     3     4   ar
     4     4     5   ar
     5     5     6   ar
     6     6     7   ar
     7     7     8   ar
     8     8     9   ar
     9     9    10   ar
    10    10    11   ar
    11    11    12   ar
    12     3    13   ar
    13    13    14   ar
    14    14    15   ar
    15    15    16   ar
    16    16    17   ar
    17    17    18   ar
    18    18    19   ar
    19    19    20   ar
    20    20    21   ar
    21    21    22   ar
    22    22    23   ar
    23    23    24   ar
    24    24    25   ar
    25    25    26   ar
    26     5     1   ar
    27    12     8   ar
    28    17    13   ar
    29    26    18   ar
    30    26     2   ar
    31    12     4   ar
    32    25    21   ar
    33     6    27    1
    34     7    28    1
    35     9    29    1
    36    10    30    1
    37    11    31    1
    38    19    32    1
    39    20    33    1
    40    22    34    1
    41    24    35    1
