@<TRIPOS>MOLECULE
*****
 41 47 0 0 0
SMALL
GASTEIGER

@<TRIPOS>ATOM
      1 SI         -1.5184   -1.3207    0.6640 Si      1  UNL1        0.0000
      2 C          -2.4558   -0.0829   -0.3838 C.2     1  UNL1        0.0000
      3 C          -1.6353    0.7546   -1.0502 C.2     1  UNL1        0.0000
      4 C          -0.1862    0.5275   -0.8134 C.ar    1  UNL1        0.0000
      5 C           0.0628   -0.5407    0.0774 C.ar    1  UNL1        0.0000
      6 C           1.3665   -0.9131    0.4317 C.ar    1  UNL1        0.0000
      7 S           1.8521   -2.1779    1.4937 S.2     1  UNL1        0.0000
      8 C           3.5091   -1.8545    1.2861 C.ar    1  UNL1        0.0000
      9 C           4.5961   -2.5203    1.8745 C.ar    1  UNL1        0.0000
     10 C           5.8709   -2.0759    1.5536 C.ar    1  UNL1        0.0000
     11 C           5.9974   -1.0141    0.6822 C.ar    1  UNL1        0.0000
     12 N           4.9753   -0.3587    0.1049 N.ar    1  UNL1        0.0000
     13 C           3.7143   -0.7882    0.4134 C.ar    1  UNL1        0.0000
     14 C           2.4687   -0.2221   -0.0992 C.ar    1  UNL1        0.0000
     15 C           2.2072    0.8753   -1.0153 C.ar    1  UNL1        0.0000
     16 C           3.2796    1.6061   -1.5807 C.ar    1  UNL1        0.0000
     17 C           3.0640    2.6649   -2.4639 C.ar    1  UNL1        0.0000
     18 C           1.7709    3.0240   -2.8079 C.ar    1  UNL1        0.0000
     19 C           0.6918    2.3243   -2.2683 C.ar    1  UNL1        0.0000
     20 C           0.8776    1.2469   -1.3703 C.ar    1  UNL1        0.0000
     21 C          -3.8687   -0.0578   -0.4577 C.ar    1  UNL1        0.0000
     22 S          -4.6999    0.0759   -2.0064 S.2     1  UNL1        0.0000
     23 C          -6.2819    0.0185   -1.3097 C.ar    1  UNL1        0.0000
     24 C          -6.1345   -0.0925    0.0204 C.ar    1  UNL1        0.0000
     25 O          -7.1373   -0.1628    0.9371 O.2     1  UNL1        0.0000
     26 C          -6.3868   -0.2493    2.0945 C.ar    1  UNL1        0.0000
     27 C          -5.0022   -0.2341    1.8826 C.ar    1  UNL1        0.0000
     28 C          -4.8432   -0.1347    0.4860 C.ar    1  UNL1        0.0000
     29 H          -1.6874   -2.7187    0.1900 H       1  UNL1        0.0000
     30 H          -1.7564   -1.1237    2.1190 H       1  UNL1        0.0000
     31 H          -1.9820    1.5423   -1.7047 H       1  UNL1        0.0000
     32 H           4.4453   -3.3521    2.5551 H       1  UNL1        0.0000
     33 H           6.7490   -2.5512    1.9770 H       1  UNL1        0.0000
     34 H           6.9832   -0.6430    0.4113 H       1  UNL1        0.0000
     35 H           4.3113    1.3633   -1.3431 H       1  UNL1        0.0000
     36 H           3.9114    3.2038   -2.8793 H       1  UNL1        0.0000
     37 H           1.5973    3.8472   -3.4957 H       1  UNL1        0.0000
     38 H          -0.3048    2.6386   -2.5657 H       1  UNL1        0.0000
     39 H          -7.1947    0.0689   -1.8846 H       1  UNL1        0.0000
     40 H          -6.9805   -0.3122    2.9972 H       1  UNL1        0.0000
     41 H          -4.2459   -0.2809    2.6528 H       1  UNL1        0.0000
@<TRIPOS>BOND
     1     1     2    1
     2     2     3    2
     3     3     4    1
     4     4     5   ar
     5     5     6   ar
     6     6     7   ar
     7     7     8   ar
     8     8     9   ar
     9     9    10   ar
    10    10    11   ar
    11    11    12   ar
    12    12    13   ar
    13    13    14   ar
    14    14    15   ar
    15    15    16   ar
    16    16    17   ar
    17    17    18   ar
    18    18    19   ar
    19    19    20   ar
    20     2    21    1
    21    21    22   ar
    22    22    23   ar
    23    23    24   ar
    24    24    25   ar
    25    25    26   ar
    26    26    27   ar
    27    27    28   ar
    28     5     1    1
    29    14     6   ar
    30    20    15   ar
    31    28    21   ar
    32    20     4   ar
    33    28    24   ar
    34    13     8   ar
    35     1    29    1
    36     1    30    1
    37     3    31    1
    38     9    32    1
    39    10    33    1
    40    11    34    1
    41    16    35    1
    42    17    36    1
    43    18    37    1
    44    19    38    1
    45    23    39    1
    46    26    40    1
    47    27    41    1
