@<TRIPOS>MOLECULE
*****
 47 53 0 0 0
SMALL
GASTEIGER

@<TRIPOS>ATOM
      1 SI         -6.5022   -1.2166   -1.4285 Si      1  UNL1        0.0000
      2 C          -6.9964   -0.1413    0.0204 C.2     1  UNL1        0.0000
      3 C          -5.9079    0.3485    0.6448 C.ar    1  UNL1        0.0000
      4 C          -5.9577    1.2251    1.8164 C.ar    1  UNL1        0.0000
      5 C          -4.8180    1.6735    2.3840 C.ar    1  UNL1        0.0000
      6 C          -3.6031    1.2494    1.7847 C.ar    1  UNL1        0.0000
      7 N          -2.3756    1.6192    2.2453 N.ar    1  UNL1        0.0000
      8 C          -1.3917    1.0494    1.4574 C.ar    1  UNL1        0.0000
      9 C           0.0061    1.1590    1.5649 C.ar    1  UNL1        0.0000
     10 C           0.8257    0.4874    0.6465 C.ar    1  UNL1        0.0000
     11 C           2.2634    0.5959    0.7508 C.ar    1  UNL1        0.0000
     12 C           3.2113   -0.0339   -0.1051 C.ar    1  UNL1        0.0000
     13 C           4.6561    0.0950    0.0347 C.ar    1  UNL1        0.0000
     14 C           5.4622   -1.0219    0.3059 C.ar    1  UNL1        0.0000
     15 C           6.8457   -0.8919    0.4526 C.ar    1  UNL1        0.0000
     16 C           7.4443    0.3600    0.3331 C.ar    1  UNL1        0.0000
     17 C           6.6609    1.4810    0.0689 C.ar    1  UNL1        0.0000
     18 C           5.2774    1.3489   -0.0764 C.ar    1  UNL1        0.0000
     19 C           2.5558   -0.7819   -1.0886 C.ar    1  UNL1        0.0000
     20 C           3.1278   -1.5010   -2.1111 C.ar    1  UNL1        0.0000
     21 N           2.1044   -2.0654   -2.8397 N.ar    1  UNL1        0.0000
     22 C           0.8859   -1.7087   -2.3046 C.ar    1  UNL1        0.0000
     23 C           1.1370   -0.9046   -1.2183 C.ar    1  UNL1        0.0000
     24 C           0.1872   -0.2880   -0.3681 C.ar    1  UNL1        0.0000
     25 C          -1.2235   -0.3909   -0.4682 C.ar    1  UNL1        0.0000
     26 C          -2.0274    0.2916    0.4638 C.ar    1  UNL1        0.0000
     27 C          -3.4239    0.4291    0.6850 C.ar    1  UNL1        0.0000
     28 C          -4.6018   -0.0737    0.0457 C.ar    1  UNL1        0.0000
     29 C          -4.7094   -0.8792   -1.0268 C.2     1  UNL1        0.0000
     30 H          -6.8726   -2.6385   -1.2277 H       1  UNL1        0.0000
     31 H          -6.9133   -0.6343   -2.7290 H       1  UNL1        0.0000
     32 H          -8.0306    0.0272    0.2734 H       1  UNL1        0.0000
     33 H          -6.9258    1.5052    2.2167 H       1  UNL1        0.0000
     34 H          -4.8335    2.3231    3.2517 H       1  UNL1        0.0000
     35 H          -2.1969    2.2170    3.0391 H       1  UNL1        0.0000
     36 H           0.4421    1.7615    2.3571 H       1  UNL1        0.0000
     37 H           2.6651    1.2056    1.5635 H       1  UNL1        0.0000
     38 H           5.0084   -2.0055    0.4111 H       1  UNL1        0.0000
     39 H           7.4526   -1.7684    0.6628 H       1  UNL1        0.0000
     40 H           8.5202    0.4621    0.4468 H       1  UNL1        0.0000
     41 H           7.1245    2.4593   -0.0259 H       1  UNL1        0.0000
     42 H           4.6812    2.2340   -0.2893 H       1  UNL1        0.0000
     43 H           4.1585   -1.6631   -2.3963 H       1  UNL1        0.0000
     44 H           2.2299   -2.6496   -3.6559 H       1  UNL1        0.0000
     45 H          -0.0320   -2.0579   -2.7561 H       1  UNL1        0.0000
     46 H          -1.6738   -0.9874   -1.2514 H       1  UNL1        0.0000
     47 H          -3.9162   -1.3044   -1.6161 H       1  UNL1        0.0000
@<TRIPOS>BOND
     1     1     2    1
     2     2     3    2
     3     3     4   ar
     4     4     5   ar
     5     5     6   ar
     6     6     7   ar
     7     7     8   ar
     8     8     9   ar
     9     9    10   ar
    10    10    11   ar
    11    11    12   ar
    12    12    13    1
    13    13    14   ar
    14    14    15   ar
    15    15    16   ar
    16    16    17   ar
    17    17    18   ar
    18    12    19   ar
    19    19    20   ar
    20    20    21   ar
    21    21    22   ar
    22    22    23   ar
    23    23    24   ar
    24    24    25   ar
    25    25    26   ar
    26    26    27   ar
    27    27    28   ar
    28    28    29    2
    29    29     1    1
    30    28     3   ar
    31    27     6   ar
    32    26     8   ar
    33    24    10   ar
    34    18    13   ar
    35    23    19   ar
    36     1    30    1
    37     1    31    1
    38     2    32    1
    39     4    33    1
    40     5    34    1
    41     7    35    1
    42     9    36    1
    43    11    37    1
    44    14    38    1
    45    15    39    1
    46    16    40    1
    47    17    41    1
    48    18    42    1
    49    20    43    1
    50    21    44    1
    51    22    45    1
    52    25    46    1
    53    29    47    1
