@<TRIPOS>MOLECULE
*****
 48 55 0 0 0
SMALL
GASTEIGER

@<TRIPOS>ATOM
      1 SI         -4.4203    2.2925   -3.3361 Si      1  UNL1        0.0000
      2 C          -5.7472    1.8062   -2.1165 C.2     1  UNL1        0.0000
      3 C          -5.2142    1.1442   -1.0730 C.ar    1  UNL1        0.0000
      4 C          -5.9682    0.6315    0.0404 C.ar    1  UNL1        0.0000
      5 C          -5.3156   -0.0141    1.0211 C.ar    1  UNL1        0.0000
      6 C          -3.8481   -0.2385    1.0366 C.ar    1  UNL1        0.0000
      7 C          -3.0746    0.2329   -0.0066 C.ar    1  UNL1        0.0000
      8 C          -1.6450   -0.0148    0.0623 C.ar    1  UNL1        0.0000
      9 O          -0.7124    0.3779   -0.8785 O.2     1  UNL1        0.0000
     10 C           0.4989   -0.0536   -0.4257 C.ar    1  UNL1        0.0000
     11 C           1.8012    0.0499   -0.9463 C.ar    1  UNL1        0.0000
     12 C           2.6888   -0.5627   -0.0777 C.ar    1  UNL1        0.0000
     13 S           1.9162   -1.2455    1.3166 S.2     1  UNL1        0.0000
     14 C           0.3733   -0.7004    0.7549 C.ar    1  UNL1        0.0000
     15 C          -0.9940   -0.6855    1.0867 C.ar    1  UNL1        0.0000
     16 C          -1.7168   -1.1966    2.1863 C.ar    1  UNL1        0.0000
     17 C          -1.2440   -1.8646    3.2542 C.2     1  UNL1        0.0000
     18 SI         -2.6206   -2.3160    4.4202 Si      1  UNL1        0.0000
     19 C          -3.8161   -1.4811    3.2441 C.2     1  UNL1        0.0000
     20 C          -3.1876   -0.9671    2.1627 C.ar    1  UNL1        0.0000
     21 C           4.1322   -0.6877   -0.2078 C.ar    1  UNL1        0.0000
     22 C           4.8523   -1.9096   -0.1626 C.ar    1  UNL1        0.0000
     23 C           6.2807   -2.0112   -0.3155 C.ar    1  UNL1        0.0000
     24 C           7.1385   -0.9078   -0.5286 C.ar    1  UNL1        0.0000
     25 C           6.4128    0.2755   -0.5667 C.ar    1  UNL1        0.0000
     26 C           6.9352    1.5301   -0.7444 C.ar    1  UNL1        0.0000
     27 N           5.8772    2.4130   -0.6989 N.ar    1  UNL1        0.0000
     28 C           4.6935    1.7330   -0.4949 C.ar    1  UNL1        0.0000
     29 C           4.9961    0.3941   -0.4190 C.ar    1  UNL1        0.0000
     30 C          -3.7471    0.9501   -1.1117 C.ar    1  UNL1        0.0000
     31 C          -3.1703    1.4800   -2.2118 C.2     1  UNL1        0.0000
     32 H          -4.2455    3.7628   -3.4203 H       1  UNL1        0.0000
     33 H          -4.5658    1.5916   -4.6349 H       1  UNL1        0.0000
     34 H          -6.7845    2.0498   -2.2800 H       1  UNL1        0.0000
     35 H          -7.0427    0.7708    0.0736 H       1  UNL1        0.0000
     36 H          -5.8964   -0.3952    1.8535 H       1  UNL1        0.0000
     37 H           2.0718    0.5293   -1.8769 H       1  UNL1        0.0000
     38 H          -0.2207   -2.1311    3.4631 H       1  UNL1        0.0000
     39 H          -2.5291   -1.6073    5.7188 H       1  UNL1        0.0000
     40 H          -2.8477   -3.7785    4.5014 H       1  UNL1        0.0000
     41 H          -4.8657   -1.4610    3.4835 H       1  UNL1        0.0000
     42 H           4.2993   -2.8376   -0.0124 H       1  UNL1        0.0000
     43 H           6.7257   -3.0056   -0.2641 H       1  UNL1        0.0000
     44 H           8.2094   -0.9961   -0.6395 H       1  UNL1        0.0000
     45 H           7.9459    1.8855   -0.8907 H       1  UNL1        0.0000
     46 H           5.9572    3.4173   -0.7913 H       1  UNL1        0.0000
     47 H           3.7611    2.2753   -0.4172 H       1  UNL1        0.0000
     48 H          -2.1271    1.4756   -2.4802 H       1  UNL1        0.0000
@<TRIPOS>BOND
     1     1     2    1
     2     2     3    2
     3     3     4   ar
     4     4     5   ar
     5     5     6   ar
     6     6     7   ar
     7     7     8   ar
     8     8     9   ar
     9     9    10   ar
    10    10    11   ar
    11    11    12   ar
    12    12    13   ar
    13    13    14   ar
    14    14    15   ar
    15    15    16   ar
    16    16    17    2
    17    17    18    1
    18    18    19    1
    19    19    20    2
    20    12    21    1
    21    21    22   ar
    22    22    23   ar
    23    23    24   ar
    24    24    25   ar
    25    25    26   ar
    26    26    27   ar
    27    27    28   ar
    28    28    29   ar
    29     7    30   ar
    30    30    31    2
    31    31     1    1
    32    30     3   ar
    33    20     6   ar
    34    29    21   ar
    35    15     8   ar
    36    20    16   ar
    37    29    25   ar
    38    14    10   ar
    39     1    32    1
    40     1    33    1
    41     2    34    1
    42     4    35    1
    43     5    36    1
    44    11    37    1
    45    17    38    1
    46    18    39    1
    47    18    40    1
    48    19    41    1
    49    22    42    1
    50    23    43    1
    51    24    44    1
    52    26    45    1
    53    27    46    1
    54    28    47    1
    55    31    48    1
