@<TRIPOS>MOLECULE
*****
 43 49 0 0 0
SMALL
GASTEIGER

@<TRIPOS>ATOM
      1 SI         -4.3474   -3.0494   -0.2127 Si      1  UNL1        0.0000
      2 C          -5.0920   -1.5777    0.6560 C.2     1  UNL1        0.0000
      3 C          -4.1942   -0.5799    0.7672 C.ar    1  UNL1        0.0000
      4 C          -4.5425    0.7514    1.2088 C.ar    1  UNL1        0.0000
      5 C          -3.6549    1.7495    1.0745 C.ar    1  UNL1        0.0000
      6 C          -2.2967    1.4810    0.5827 C.ar    1  UNL1        0.0000
      7 C          -1.3604    2.4913    0.3473 C.ar    1  UNL1        0.0000
      8 C          -1.5634    3.8501    0.4208 C.ar    1  UNL1        0.0000
      9 N          -0.3789    4.4635    0.0833 N.ar    1  UNL1        0.0000
     10 C           0.5810    3.5162   -0.1934 C.ar    1  UNL1        0.0000
     11 C          -0.0004    2.2779   -0.0399 C.ar    1  UNL1        0.0000
     12 C           0.6317    1.0197   -0.1762 C.ar    1  UNL1        0.0000
     13 C           2.0406    0.8731   -0.5179 C.ar    1  UNL1        0.0000
     14 C           2.7085   -0.3626   -0.5502 C.ar    1  UNL1        0.0000
     15 C           4.1176   -0.5224   -0.8488 C.ar    1  UNL1        0.0000
     16 C           5.2053   -0.0032   -0.1737 C.ar    1  UNL1        0.0000
     17 C           6.4443   -0.3597   -0.7818 C.ar    1  UNL1        0.0000
     18 C           6.2611   -1.1270   -1.9100 C.ar    1  UNL1        0.0000
     19 S           4.6055   -1.4094   -2.2320 S.2     1  UNL1        0.0000
     20 C           1.8626   -1.3875   -0.1345 C.ar    1  UNL1        0.0000
     21 C           2.2107   -2.6892    0.1250 C.ar    1  UNL1        0.0000
     22 O           1.1444   -3.3537    0.6516 O.2     1  UNL1        0.0000
     23 C           0.1096   -2.4674    0.7254 C.ar    1  UNL1        0.0000
     24 C           0.4655   -1.2552    0.1828 C.ar    1  UNL1        0.0000
     25 C          -0.3184   -0.0605    0.1159 C.ar    1  UNL1        0.0000
     26 C          -1.7640    0.1681    0.3429 C.ar    1  UNL1        0.0000
     27 C          -2.8261   -0.8876    0.2742 C.ar    1  UNL1        0.0000
     28 C          -2.7588   -2.0722   -0.3703 C.2     1  UNL1        0.0000
     29 H          -4.9842   -3.3169   -1.5247 H       1  UNL1        0.0000
     30 H          -4.2000   -4.2218    0.6831 H       1  UNL1        0.0000
     31 H          -6.1388   -1.5467    0.9126 H       1  UNL1        0.0000
     32 H          -5.5412    0.9421    1.5864 H       1  UNL1        0.0000
     33 H          -3.9201    2.7573    1.3692 H       1  UNL1        0.0000
     34 H          -2.4309    4.4470    0.6657 H       1  UNL1        0.0000
     35 H          -0.2335    5.4644    0.0482 H       1  UNL1        0.0000
     36 H           1.5803    3.8272   -0.4640 H       1  UNL1        0.0000
     37 H           2.6170    1.7673   -0.7504 H       1  UNL1        0.0000
     38 H           5.1168    0.5986    0.7231 H       1  UNL1        0.0000
     39 H           7.4189   -0.0660   -0.4115 H       1  UNL1        0.0000
     40 H           7.0186   -1.5333   -2.5660 H       1  UNL1        0.0000
     41 H           3.1230   -3.2642    0.0486 H       1  UNL1        0.0000
     42 H          -0.7760   -2.8565    1.2055 H       1  UNL1        0.0000
     43 H          -1.9404   -2.4755   -0.9429 H       1  UNL1        0.0000
@<TRIPOS>BOND
     1     1     2    1
     2     2     3    2
     3     3     4   ar
     4     4     5   ar
     5     5     6   ar
     6     6     7   ar
     7     7     8   ar
     8     8     9   ar
     9     9    10   ar
    10    10    11   ar
    11    11    12   ar
    12    12    13   ar
    13    13    14   ar
    14    14    15    1
    15    15    16   ar
    16    16    17   ar
    17    17    18   ar
    18    18    19   ar
    19    14    20   ar
    20    20    21   ar
    21    21    22   ar
    22    22    23   ar
    23    23    24   ar
    24    24    25   ar
    25    25    26   ar
    26    26    27   ar
    27    27    28    2
    28    28     1    1
    29    27     3   ar
    30    26     6   ar
    31    11     7   ar
    32    25    12   ar
    33    19    15   ar
    34    24    20   ar
    35     1    29    1
    36     1    30    1
    37     2    31    1
    38     4    32    1
    39     5    33    1
    40     8    34    1
    41     9    35    1
    42    10    36    1
    43    13    37    1
    44    16    38    1
    45    17    39    1
    46    18    40    1
    47    21    41    1
    48    23    42    1
    49    28    43    1
