@<TRIPOS>MOLECULE
*****
 47 54 0 0 0
SMALL
GASTEIGER

@<TRIPOS>ATOM
      1 SI          4.7245    3.4901   -0.5554 Si      1  UNL1        0.0000
      2 C           5.7935    2.0080   -0.2199 C.2     1  UNL1        0.0000
      3 C           5.0483    0.9023   -0.0317 C.ar    1  UNL1        0.0000
      4 C           5.6231   -0.4106    0.1719 C.ar    1  UNL1        0.0000
      5 C           4.8318   -1.4896    0.2854 C.ar    1  UNL1        0.0000
      6 C           3.3701   -1.3503    0.2448 C.ar    1  UNL1        0.0000
      7 C           2.4988   -2.4268    0.4082 C.ar    1  UNL1        0.0000
      8 C           2.8310   -3.7461    0.6215 C.ar    1  UNL1        0.0000
      9 O           1.7034   -4.5001    0.8092 O.2     1  UNL1        0.0000
     10 C           0.6279   -3.6554    0.7127 C.ar    1  UNL1        0.0000
     11 C           1.0914   -2.4093    0.4280 C.ar    1  UNL1        0.0000
     12 C           0.4389   -1.1519    0.2661 C.ar    1  UNL1        0.0000
     13 C           1.2729   -0.0290    0.1729 C.ar    1  UNL1        0.0000
     14 N           0.3947    1.0419    0.2282 N.ar    1  UNL1        0.0000
     15 C          -0.9264    0.6364    0.2536 C.ar    1  UNL1        0.0000
     16 C          -2.1130    1.4118    0.3074 C.ar    1  UNL1        0.0000
     17 C          -3.3887    0.8025    0.2965 C.ar    1  UNL1        0.0000
     18 C          -4.6206    1.5597    0.3830 C.ar    1  UNL1        0.0000
     19 C          -5.8737    1.3390    0.9216 C.ar    1  UNL1        0.0000
     20 C          -6.6381    2.5062    0.6775 C.ar    1  UNL1        0.0000
     21 C          -5.8049    3.3740    0.0148 C.ar    1  UNL1        0.0000
     22 O          -4.5803    2.8160   -0.1601 O.2     1  UNL1        0.0000
     23 C          -3.3167   -0.5915    0.1715 C.ar    1  UNL1        0.0000
     24 C          -4.3724   -1.4636   -0.0015 C.ar    1  UNL1        0.0000
     25 N          -3.8593   -2.7351   -0.1698 N.ar    1  UNL1        0.0000
     26 C          -2.4812   -2.7006   -0.1342 C.ar    1  UNL1        0.0000
     27 C          -2.1546   -1.4011    0.1142 C.ar    1  UNL1        0.0000
     28 C          -0.8860   -0.7510    0.2130 C.ar    1  UNL1        0.0000
     29 C           2.7000   -0.0923    0.1018 C.ar    1  UNL1        0.0000
     30 C           3.5723    1.0999   -0.0990 C.ar    1  UNL1        0.0000
     31 C           3.2231    2.3687   -0.4037 C.2     1  UNL1        0.0000
     32 H           4.7723    4.4971    0.5317 H       1  UNL1        0.0000
     33 H           4.8854    4.0217   -1.9298 H       1  UNL1        0.0000
     34 H           6.8698    2.0752   -0.2267 H       1  UNL1        0.0000
     35 H           6.7029   -0.5121    0.2084 H       1  UNL1        0.0000
     36 H           5.2711   -2.4699    0.4232 H       1  UNL1        0.0000
     37 H           3.7583   -4.2961    0.6937 H       1  UNL1        0.0000
     38 H          -0.3251   -4.1151    0.9107 H       1  UNL1        0.0000
     39 H           0.6726    2.0067    0.2875 H       1  UNL1        0.0000
     40 H          -2.0430    2.4965    0.3632 H       1  UNL1        0.0000
     41 H          -6.1937    0.4481    1.4425 H       1  UNL1        0.0000
     42 H          -7.6649    2.6938    0.9571 H       1  UNL1        0.0000
     43 H          -5.9217    4.3749   -0.3762 H       1  UNL1        0.0000
     44 H          -5.4405   -1.3121   -0.0633 H       1  UNL1        0.0000
     45 H          -4.4129   -3.5621   -0.3522 H       1  UNL1        0.0000
     46 H          -1.9178   -3.5944   -0.3423 H       1  UNL1        0.0000
     47 H           2.2577    2.7957   -0.5914 H       1  UNL1        0.0000
@<TRIPOS>BOND
     1     1     2    1
     2     2     3    2
     3     3     4   ar
     4     4     5   ar
     5     5     6   ar
     6     6     7   ar
     7     7     8   ar
     8     8     9   ar
     9     9    10   ar
    10    10    11   ar
    11    11    12   ar
    12    12    13   ar
    13    13    14   ar
    14    14    15   ar
    15    15    16   ar
    16    16    17   ar
    17    17    18    1
    18    18    19   ar
    19    19    20   ar
    20    20    21   ar
    21    21    22   ar
    22    17    23   ar
    23    23    24   ar
    24    24    25   ar
    25    25    26   ar
    26    26    27   ar
    27    27    28   ar
    28    13    29   ar
    29    29    30   ar
    30    30    31    2
    31    31     1    1
    32    30     3   ar
    33    29     6   ar
    34    11     7   ar
    35    28    12   ar
    36    28    15   ar
    37    22    18   ar
    38    27    23   ar
    39     1    32    1
    40     1    33    1
    41     2    34    1
    42     4    35    1
    43     5    36    1
    44     8    37    1
    45    10    38    1
    46    14    39    1
    47    16    40    1
    48    19    41    1
    49    20    42    1
    50    21    43    1
    51    24    44    1
    52    25    45    1
    53    26    46    1
    54    31    47    1
