@<TRIPOS>MOLECULE
*****
 42 48 0 0 0
SMALL
GASTEIGER

@<TRIPOS>ATOM
      1 SI         -5.1631    3.1208    0.6345 Si      1  UNL1        0.0000
      2 C          -5.7878    1.5459   -0.1282 C.2     1  UNL1        0.0000
      3 C          -4.7882    0.6599   -0.3005 C.ar    1  UNL1        0.0000
      4 C          -5.0198   -0.7045   -0.7125 C.ar    1  UNL1        0.0000
      5 C          -4.0109   -1.5874   -0.6966 C.ar    1  UNL1        0.0000
      6 C          -2.6505   -1.1579   -0.3556 C.ar    1  UNL1        0.0000
      7 C          -1.5777   -2.0483   -0.3168 C.ar    1  UNL1        0.0000
      8 C          -1.5861   -3.4117   -0.4728 C.ar    1  UNL1        0.0000
      9 O          -0.3159   -3.9001   -0.3565 O.2     1  UNL1        0.0000
     10 C           0.5102   -2.8354   -0.1314 C.ar    1  UNL1        0.0000
     11 C          -0.2229   -1.6756   -0.0978 C.ar    1  UNL1        0.0000
     12 C           0.2238   -0.3614    0.0604 C.ar    1  UNL1        0.0000
     13 C           1.5590    0.0250    0.2150 C.ar    1  UNL1        0.0000
     14 O           2.6472   -0.7878    0.3095 O.2     1  UNL1        0.0000
     15 C           3.7662   -0.0052    0.4494 C.ar    1  UNL1        0.0000
     16 C           3.3698    1.3235    0.4337 C.ar    1  UNL1        0.0000
     17 C           1.9590    1.3487    0.2829 C.ar    1  UNL1        0.0000
     18 C           0.9819    2.3441    0.1687 C.ar    1  UNL1        0.0000
     19 C          -0.3699    1.9637    0.0249 C.ar    1  UNL1        0.0000
     20 C          -0.8282    0.6216    0.0141 C.ar    1  UNL1        0.0000
     21 C          -2.2478    0.2077   -0.0915 C.ar    1  UNL1        0.0000
     22 C          -3.4269    1.1362    0.0735 C.ar    1  UNL1        0.0000
     23 C          -3.4547    2.3500    0.6674 C.2     1  UNL1        0.0000
     24 C           5.0918   -0.5514    0.5793 C.ar    1  UNL1        0.0000
     25 C           6.2826    0.1364    0.7254 C.ar    1  UNL1        0.0000
     26 C           7.4103   -0.7320    0.8258 C.ar    1  UNL1        0.0000
     27 C           7.0460   -2.0568    0.7533 C.ar    1  UNL1        0.0000
     28 S           5.3580   -2.2469    0.5659 S.2     1  UNL1        0.0000
     29 H          -5.7004    3.3538    1.9965 H       1  UNL1        0.0000
     30 H          -5.2349    4.2777   -0.2901 H       1  UNL1        0.0000
     31 H          -6.8395    1.3844   -0.3043 H       1  UNL1        0.0000
     32 H          -6.0241   -1.0150   -0.9810 H       1  UNL1        0.0000
     33 H          -4.1906   -2.6186   -0.9762 H       1  UNL1        0.0000
     34 H          -2.3471   -4.1569   -0.6541 H       1  UNL1        0.0000
     35 H           1.5588   -3.0795   -0.0307 H       1  UNL1        0.0000
     36 H           4.0228    2.1805    0.5149 H       1  UNL1        0.0000
     37 H           1.2532    3.3961    0.1712 H       1  UNL1        0.0000
     38 H          -1.0677    2.7790   -0.1410 H       1  UNL1        0.0000
     39 H          -2.6622    2.8872    1.1561 H       1  UNL1        0.0000
     40 H           6.3538    1.2164    0.7602 H       1  UNL1        0.0000
     41 H           8.4345   -0.4005    0.9449 H       1  UNL1        0.0000
     42 H           7.6881   -2.9256    0.8011 H       1  UNL1        0.0000
@<TRIPOS>BOND
     1     1     2    1
     2     2     3    2
     3     3     4   ar
     4     4     5   ar
     5     5     6   ar
     6     6     7   ar
     7     7     8   ar
     8     8     9   ar
     9     9    10   ar
    10    10    11   ar
    11    11    12   ar
    12    12    13   ar
    13    13    14   ar
    14    14    15   ar
    15    15    16   ar
    16    16    17   ar
    17    17    18   ar
    18    18    19   ar
    19    19    20   ar
    20    20    21   ar
    21    21    22   ar
    22    22    23    2
    23    15    24    1
    24    24    25   ar
    25    25    26   ar
    26    26    27   ar
    27    27    28   ar
    28    23     1    1
    29    28    24   ar
    30    22     3   ar
    31    21     6   ar
    32    11     7   ar
    33    20    12   ar
    34    17    13   ar
    35     1    29    1
    36     1    30    1
    37     2    31    1
    38     4    32    1
    39     5    33    1
    40     8    34    1
    41    10    35    1
    42    16    36    1
    43    18    37    1
    44    19    38    1
    45    23    39    1
    46    25    40    1
    47    26    41    1
    48    27    42    1
