@<TRIPOS>MOLECULE
*****
 41 47 0 0 0
SMALL
GASTEIGER

@<TRIPOS>ATOM
      1 SI         -5.0046    2.9917   -0.7249 Si      1  UNL1        0.0000
      2 C          -5.6404    1.3258   -0.2028 C.2     1  UNL1        0.0000
      3 C          -4.6289    0.4564   -0.0162 C.ar    1  UNL1        0.0000
      4 C          -4.8463   -0.9508    0.2239 C.ar    1  UNL1        0.0000
      5 C          -3.8060   -1.7967    0.2259 C.ar    1  UNL1        0.0000
      6 C          -2.4362   -1.2927    0.0812 C.ar    1  UNL1        0.0000
      7 C          -1.3296   -2.1416    0.0668 C.ar    1  UNL1        0.0000
      8 C          -1.2985   -3.5135    0.0782 C.ar    1  UNL1        0.0000
      9 O          -0.0041   -3.9487    0.0504 O.2     1  UNL1        0.0000
     10 C           0.7965   -2.8419    0.0284 C.ar    1  UNL1        0.0000
     11 C           0.0243   -1.7074    0.0363 C.ar    1  UNL1        0.0000
     12 C           0.4310   -0.3712    0.0652 C.ar    1  UNL1        0.0000
     13 C           1.7580    0.0692    0.0975 C.ar    1  UNL1        0.0000
     14 O           2.8832   -0.6957    0.0376 O.2     1  UNL1        0.0000
     15 C           3.9764    0.1310    0.1021 C.ar    1  UNL1        0.0000
     16 C           3.5270    1.4378    0.2131 C.ar    1  UNL1        0.0000
     17 C           2.1081    1.4039    0.2117 C.ar    1  UNL1        0.0000
     18 C           1.0843    2.3516    0.3222 C.ar    1  UNL1        0.0000
     19 C          -0.2583    1.9178    0.2779 C.ar    1  UNL1        0.0000
     20 C          -0.6596    0.5693    0.0990 C.ar    1  UNL1        0.0000
     21 C          -2.0642    0.1046    0.0062 C.ar    1  UNL1        0.0000
     22 C          -3.2565    1.0103   -0.1884 C.ar    1  UNL1        0.0000
     23 C          -3.2717    2.2797   -0.6522 C.2     1  UNL1        0.0000
     24 C           5.3247   -0.3580    0.0604 C.ar    1  UNL1        0.0000
     25 C           6.5077    0.3559    0.1153 C.ar    1  UNL1        0.0000
     26 N           7.6725   -0.3881    0.0536 N.ar    1  UNL1        0.0000
     27 C           7.3605   -1.6608   -0.0478 C.ar    1  UNL1        0.0000
     28 S           5.6882   -2.0322   -0.0745 S.2     1  UNL1        0.0000
     29 H          -5.2197    4.0393    0.3021 H       1  UNL1        0.0000
     30 H          -5.4046    3.3541   -2.1056 H       1  UNL1        0.0000
     31 H          -6.6973    1.1152   -0.1597 H       1  UNL1        0.0000
     32 H          -5.8598   -1.3180    0.3479 H       1  UNL1        0.0000
     33 H          -3.9719   -2.8569    0.3754 H       1  UNL1        0.0000
     34 H          -2.0433   -4.2961    0.0972 H       1  UNL1        0.0000
     35 H           1.8587   -3.0431    0.0174 H       1  UNL1        0.0000
     36 H           4.1477    2.3190    0.2929 H       1  UNL1        0.0000
     37 H           1.3104    3.4055    0.4587 H       1  UNL1        0.0000
     38 H          -1.0026    2.6893    0.4510 H       1  UNL1        0.0000
     39 H          -2.4552    2.8901   -0.9933 H       1  UNL1        0.0000
     40 H           6.5874    1.4327    0.2013 H       1  UNL1        0.0000
     41 H           8.1124   -2.4365   -0.1114 H       1  UNL1        0.0000
@<TRIPOS>BOND
     1     1     2    1
     2     2     3    2
     3     3     4   ar
     4     4     5   ar
     5     5     6   ar
     6     6     7   ar
     7     7     8   ar
     8     8     9   ar
     9     9    10   ar
    10    10    11   ar
    11    11    12   ar
    12    12    13   ar
    13    13    14   ar
    14    14    15   ar
    15    15    16   ar
    16    16    17   ar
    17    17    18   ar
    18    18    19   ar
    19    19    20   ar
    20    20    21   ar
    21    21    22   ar
    22    22    23    2
    23    15    24    1
    24    24    25   ar
    25    25    26   ar
    26    26    27   ar
    27    27    28   ar
    28    23     1    1
    29    28    24   ar
    30    22     3   ar
    31    21     6   ar
    32    11     7   ar
    33    20    12   ar
    34    17    13   ar
    35     1    29    1
    36     1    30    1
    37     2    31    1
    38     4    32    1
    39     5    33    1
    40     8    34    1
    41    10    35    1
    42    16    36    1
    43    18    37    1
    44    19    38    1
    45    23    39    1
    46    25    40    1
    47    27    41    1
