@<TRIPOS>MOLECULE
*****
 40 46 0 0 0
SMALL
GASTEIGER

@<TRIPOS>ATOM
      1 SI         -2.9230    4.1315   -0.1851 Si      1  UNL1        0.0000
      2 C          -4.3918    2.9760   -0.1033 C.2     1  UNL1        0.0000
      3 C          -3.9923    1.6916   -0.0390 C.ar    1  UNL1        0.0000
      4 C          -4.9021    0.5640    0.0339 C.ar    1  UNL1        0.0000
      5 C          -4.4313   -0.6948    0.0959 C.ar    1  UNL1        0.0000
      6 C          -2.9842   -0.9480    0.0906 C.ar    1  UNL1        0.0000
      7 C          -2.4205   -2.2276    0.1524 C.ar    1  UNL1        0.0000
      8 C          -3.0554   -3.4471    0.2268 C.ar    1  UNL1        0.0000
      9 O          -2.1349   -4.4689    0.2700 O.2     1  UNL1        0.0000
     10 C          -0.8837   -3.9045    0.2230 C.ar    1  UNL1        0.0000
     11 C          -1.0546   -2.5600    0.1525 C.ar    1  UNL1        0.0000
     12 C          -0.1217   -1.5010    0.0828 C.ar    1  UNL1        0.0000
     13 C           1.2666   -1.4887    0.0639 C.ar    1  UNL1        0.0000
     14 C           1.6079   -0.1412   -0.0136 C.ar    1  UNL1        0.0000
     15 O           0.4505    0.6173   -0.0394 O.2     1  UNL1        0.0000
     16 C          -0.6315   -0.2217    0.0203 C.ar    1  UNL1        0.0000
     17 C          -2.0099    0.1039    0.0208 C.ar    1  UNL1        0.0000
     18 C          -2.5208    1.4893   -0.0474 C.ar    1  UNL1        0.0000
     19 C          -1.8093    2.6331   -0.1186 C.2     1  UNL1        0.0000
     20 C           2.9133    0.4540   -0.0631 C.ar    1  UNL1        0.0000
     21 S           3.1267    2.1840   -0.1601 S.2     1  UNL1        0.0000
     22 C           4.8583    2.0916   -0.1778 C.ar    1  UNL1        0.0000
     23 C           5.2011    0.7902   -0.1114 C.ar    1  UNL1        0.0000
     24 N           6.4677    0.2836   -0.1004 N.ar    1  UNL1        0.0000
     25 C           6.2111   -1.0828   -0.0226 C.ar    1  UNL1        0.0000
     26 C           4.8254   -1.3497    0.0101 C.ar    1  UNL1        0.0000
     27 C           4.1493   -0.0989   -0.0492 C.ar    1  UNL1        0.0000
     28 H          -2.8467    4.8483   -1.4812 H       1  UNL1        0.0000
     29 H          -2.8139    4.9838    1.0238 H       1  UNL1        0.0000
     30 H          -5.4028    3.3503   -0.1102 H       1  UNL1        0.0000
     31 H          -5.9703    0.7552    0.0376 H       1  UNL1        0.0000
     32 H          -5.1174   -1.5314    0.1502 H       1  UNL1        0.0000
     33 H          -4.0870   -3.7679    0.2577 H       1  UNL1        0.0000
     34 H          -0.0499   -4.5904    0.2491 H       1  UNL1        0.0000
     35 H           1.9492   -2.3236    0.1001 H       1  UNL1        0.0000
     36 H          -0.7381    2.7500   -0.1390 H       1  UNL1        0.0000
     37 H           5.4863    2.9693   -0.2338 H       1  UNL1        0.0000
     38 H           7.3435    0.7906   -0.1395 H       1  UNL1        0.0000
     39 H           7.0458   -1.7718    0.0039 H       1  UNL1        0.0000
     40 H           4.3903   -2.3377    0.0696 H       1  UNL1        0.0000
@<TRIPOS>BOND
     1     1     2    1
     2     2     3    2
     3     3     4   ar
     4     4     5   ar
     5     5     6   ar
     6     6     7   ar
     7     7     8   ar
     8     8     9   ar
     9     9    10   ar
    10    10    11   ar
    11    11    12   ar
    12    12    13   ar
    13    13    14   ar
    14    14    15   ar
    15    15    16   ar
    16    16    17   ar
    17    17    18   ar
    18    18    19    2
    19    14    20    1
    20    20    21   ar
    21    21    22   ar
    22    22    23   ar
    23    23    24   ar
    24    24    25   ar
    25    25    26   ar
    26    26    27   ar
    27    19     1    1
    28    27    20   ar
    29    18     3   ar
    30    27    23   ar
    31    17     6   ar
    32    11     7   ar
    33    16    12   ar
    34     1    28    1
    35     1    29    1
    36     2    30    1
    37     4    31    1
    38     5    32    1
    39     8    33    1
    40    10    34    1
    41    13    35    1
    42    19    36    1
    43    22    37    1
    44    24    38    1
    45    25    39    1
    46    26    40    1
