@<TRIPOS>MOLECULE
*****
 39 44 0 0 0
SMALL
GASTEIGER

@<TRIPOS>ATOM
      1 SI         -4.8320    2.6073   -0.5239 Si      1  UNL1        0.0000
      2 C          -5.4284    0.8675   -0.2020 C.2     1  UNL1        0.0000
      3 C          -4.3921    0.0200   -0.0575 C.ar    1  UNL1        0.0000
      4 C          -4.5377   -1.3956    0.2026 C.ar    1  UNL1        0.0000
      5 C          -3.4521   -2.1770    0.3356 C.ar    1  UNL1        0.0000
      6 C          -2.0976   -1.6127    0.2201 C.ar    1  UNL1        0.0000
      7 C          -0.9189   -2.3734    0.3460 C.ar    1  UNL1        0.0000
      8 C          -0.8747   -3.7283    0.5871 C.ar    1  UNL1        0.0000
      9 S           0.7358   -4.3193    0.6647 S.2     1  UNL1        0.0000
     10 C           1.3951   -2.7634    0.3741 C.ar    1  UNL1        0.0000
     11 C           0.4133   -1.8088    0.2315 C.ar    1  UNL1        0.0000
     12 C           0.6755   -0.4483   -0.0162 C.ar    1  UNL1        0.0000
     13 C          -0.5167    0.3118   -0.1475 C.ar    1  UNL1        0.0000
     14 C          -1.8436   -0.2240   -0.0369 C.ar    1  UNL1        0.0000
     15 C          -3.0501    0.6365   -0.1825 C.ar    1  UNL1        0.0000
     16 C          -3.0742    1.9646   -0.4240 C.2     1  UNL1        0.0000
     17 C           2.0078    0.1344   -0.1302 C.ar    1  UNL1        0.0000
     18 C           2.4993    0.5397   -1.3729 C.ar    1  UNL1        0.0000
     19 C           3.7741    1.1051   -1.4985 C.ar    1  UNL1        0.0000
     20 C           4.5931    1.2816   -0.3597 C.ar    1  UNL1        0.0000
     21 C           5.9146    1.8274   -0.2353 C.ar    1  UNL1        0.0000
     22 C           6.3732    1.8275    1.0612 C.ar    1  UNL1        0.0000
     23 S           5.2281    1.1754    2.1429 S.2     1  UNL1        0.0000
     24 C           4.0925    0.8795    0.8803 C.ar    1  UNL1        0.0000
     25 C           2.8093    0.3105    1.0095 C.ar    1  UNL1        0.0000
     26 H          -5.1573    3.5355    0.5856 H       1  UNL1        0.0000
     27 H          -5.1799    3.0857   -1.8836 H       1  UNL1        0.0000
     28 H          -6.4793    0.6326   -0.1487 H       1  UNL1        0.0000
     29 H          -5.5350   -1.8142    0.2886 H       1  UNL1        0.0000
     30 H          -3.5770   -3.2345    0.5307 H       1  UNL1        0.0000
     31 H          -1.6856   -4.4287    0.7228 H       1  UNL1        0.0000
     32 H           2.4694   -2.6465    0.3257 H       1  UNL1        0.0000
     33 H          -0.3991    1.3782   -0.3381 H       1  UNL1        0.0000
     34 H          -2.2454    2.6396   -0.5537 H       1  UNL1        0.0000
     35 H           1.8916    0.4117   -2.2674 H       1  UNL1        0.0000
     36 H           4.1331    1.4076   -2.4791 H       1  UNL1        0.0000
     37 H           6.4977    2.2025   -1.0673 H       1  UNL1        0.0000
     38 H           7.3280    2.1804    1.4258 H       1  UNL1        0.0000
     39 H           2.4451    0.0123    1.9901 H       1  UNL1        0.0000
@<TRIPOS>BOND
     1     1     2    1
     2     2     3    2
     3     3     4   ar
     4     4     5   ar
     5     5     6   ar
     6     6     7   ar
     7     7     8   ar
     8     8     9   ar
     9     9    10   ar
    10    10    11   ar
    11    11    12   ar
    12    12    13   ar
    13    13    14   ar
    14    14    15   ar
    15    15    16    2
    16    12    17    1
    17    17    18   ar
    18    18    19   ar
    19    19    20   ar
    20    20    21   ar
    21    21    22   ar
    22    22    23   ar
    23    23    24   ar
    24    24    25   ar
    25    16     1    1
    26    25    17   ar
    27    15     3   ar
    28    24    20   ar
    29    14     6   ar
    30    11     7   ar
    31     1    26    1
    32     1    27    1
    33     2    28    1
    34     4    29    1
    35     5    30    1
    36     8    31    1
    37    10    32    1
    38    13    33    1
    39    16    34    1
    40    18    35    1
    41    19    36    1
    42    21    37    1
    43    22    38    1
    44    25    39    1
