@<TRIPOS>MOLECULE
*****
 48 55 0 0 0
SMALL
GASTEIGER

@<TRIPOS>ATOM
      1 SI         -5.8954    0.7680   -2.8732 Si      1  UNL1        0.0000
      2 C          -6.6884    0.3995   -1.2320 C.2     1  UNL1        0.0000
      3 C          -5.7587    0.1445   -0.2917 C.ar    1  UNL1        0.0000
      4 C          -6.0888   -0.3369    1.0260 C.ar    1  UNL1        0.0000
      5 C          -5.1122   -0.7484    1.8479 C.ar    1  UNL1        0.0000
      6 C          -3.6935   -0.6341    1.4646 C.ar    1  UNL1        0.0000
      7 C          -2.6468   -1.0572    2.2948 C.ar    1  UNL1        0.0000
      8 C          -2.8382   -1.7077    3.4950 C.ar    1  UNL1        0.0000
      9 S          -1.3663   -2.0127    4.3069 S.2     1  UNL1        0.0000
     10 C          -0.4634   -1.2656    3.0567 C.ar    1  UNL1        0.0000
     11 C          -1.2404   -0.8704    1.9881 C.ar    1  UNL1        0.0000
     12 C          -0.7366   -0.2057    0.8140 C.ar    1  UNL1        0.0000
     13 C           0.6534   -0.0184    0.3936 C.ar    1  UNL1        0.0000
     14 C           1.7854   -0.6995    0.8743 C.ar    1  UNL1        0.0000
     15 N           3.0743   -0.4870    0.5042 N.ar    1  UNL1        0.0000
     16 C           3.3097    0.4495   -0.4359 C.ar    1  UNL1        0.0000
     17 C           2.2674    1.1452   -1.0313 C.ar    1  UNL1        0.0000
     18 C           0.9431    0.8962   -0.6328 C.ar    1  UNL1        0.0000
     19 C          -0.1020    1.5622   -1.2626 C.ar    1  UNL1        0.0000
     20 C          -1.4325    1.2737   -0.9470 C.ar    1  UNL1        0.0000
     21 C          -1.8221    0.3390    0.0326 C.ar    1  UNL1        0.0000
     22 C          -3.2342    0.0103    0.2666 C.ar    1  UNL1        0.0000
     23 C          -4.3438    0.2804   -0.7244 C.ar    1  UNL1        0.0000
     24 C          -4.2321    0.4991   -2.0541 C.2     1  UNL1        0.0000
     25 C           4.7260    0.6335   -0.7725 C.ar    1  UNL1        0.0000
     26 S           5.2893    1.9242   -1.8151 S.2     1  UNL1        0.0000
     27 C           6.9581    1.4696   -1.7008 C.ar    1  UNL1        0.0000
     28 C           7.0341    0.3910   -0.8989 C.ar    1  UNL1        0.0000
     29 N           8.1640   -0.2850   -0.5417 N.ar    1  UNL1        0.0000
     30 C           7.6364   -1.2792    0.2792 C.ar    1  UNL1        0.0000
     31 C           6.2334   -1.1709    0.3871 C.ar    1  UNL1        0.0000
     32 C           5.8324   -0.0566   -0.3990 C.ar    1  UNL1        0.0000
     33 H          -6.1921   -0.2612   -3.8982 H       1  UNL1        0.0000
     34 H          -6.0861    2.1750   -3.3006 H       1  UNL1        0.0000
     35 H          -7.7592    0.3236   -1.1286 H       1  UNL1        0.0000
     36 H          -7.1304   -0.4076    1.3212 H       1  UNL1        0.0000
     37 H          -5.3785   -1.1292    2.8255 H       1  UNL1        0.0000
     38 H          -3.7556   -2.0189    3.9724 H       1  UNL1        0.0000
     39 H           0.5933   -1.1535    3.2342 H       1  UNL1        0.0000
     40 H           1.6982   -1.5261    1.5696 H       1  UNL1        0.0000
     41 H           2.4642    1.8706   -1.8138 H       1  UNL1        0.0000
     42 H           0.0960    2.3040   -2.0347 H       1  UNL1        0.0000
     43 H          -2.1806    1.8668   -1.4674 H       1  UNL1        0.0000
     44 H          -3.3457    0.5142   -2.6646 H       1  UNL1        0.0000
     45 H           7.7454    2.0062   -2.2107 H       1  UNL1        0.0000
     46 H           9.1199   -0.0932   -0.8144 H       1  UNL1        0.0000
     47 H           8.3072   -1.9982    0.7315 H       1  UNL1        0.0000
     48 H           5.5927   -1.8231    0.9665 H       1  UNL1        0.0000
@<TRIPOS>BOND
     1     1     2    1
     2     2     3    2
     3     3     4   ar
     4     4     5   ar
     5     5     6   ar
     6     6     7   ar
     7     7     8   ar
     8     8     9   ar
     9     9    10   ar
    10    10    11   ar
    11    11    12   ar
    12    12    13   ar
    13    13    14   ar
    14    14    15   ar
    15    15    16   ar
    16    16    17   ar
    17    17    18   ar
    18    18    19   ar
    19    19    20   ar
    20    20    21   ar
    21    21    22   ar
    22    22    23   ar
    23    23    24    2
    24    16    25    1
    25    25    26   ar
    26    26    27   ar
    27    27    28   ar
    28    28    29   ar
    29    29    30   ar
    30    30    31   ar
    31    31    32   ar
    32    24     1    1
    33    32    25   ar
    34    23     3   ar
    35    32    28   ar
    36    22     6   ar
    37    11     7   ar
    38    21    12   ar
    39    18    13   ar
    40     1    33    1
    41     1    34    1
    42     2    35    1
    43     4    36    1
    44     5    37    1
    45     8    38    1
    46    10    39    1
    47    14    40    1
    48    17    41    1
    49    19    42    1
    50    20    43    1
    51    24    44    1
    52    27    45    1
    53    29    46    1
    54    30    47    1
    55    31    48    1
