@<TRIPOS>MOLECULE
*****
 43 49 0 0 0
SMALL
GASTEIGER

@<TRIPOS>ATOM
      1 SI         -4.3059   -4.1146    0.6681 Si      1  UNL1        0.0000
      2 C          -5.5401   -2.7330    0.5779 C.2     1  UNL1        0.0000
      3 C          -4.9314   -1.5446    0.4038 C.ar    1  UNL1        0.0000
      4 C          -5.6638   -0.3073    0.3022 C.ar    1  UNL1        0.0000
      5 C          -5.0114    0.8507    0.1298 C.ar    1  UNL1        0.0000
      6 C          -3.5403    0.8953    0.0392 C.ar    1  UNL1        0.0000
      7 C          -2.8364    2.0941   -0.1410 C.ar    1  UNL1        0.0000
      8 C          -3.4510    3.3279   -0.2479 C.ar    1  UNL1        0.0000
      9 S          -2.3374    4.6169   -0.4626 S.2     1  UNL1        0.0000
     10 C          -0.9996    3.5404   -0.4164 C.ar    1  UNL1        0.0000
     11 C          -1.4261    2.2533   -0.2421 C.ar    1  UNL1        0.0000
     12 C          -0.6026    1.0546   -0.1516 C.ar    1  UNL1        0.0000
     13 C           0.8353    1.0009   -0.2298 C.ar    1  UNL1        0.0000
     14 C           1.8602    1.9458   -0.3988 C.ar    1  UNL1        0.0000
     15 N           3.1700    1.5942   -0.4353 N.ar    1  UNL1        0.0000
     16 C           3.5421    0.3000   -0.3081 C.ar    1  UNL1        0.0000
     17 C           2.5978   -0.6996   -0.1374 C.ar    1  UNL1        0.0000
     18 C           1.2458   -0.3240   -0.1012 C.ar    1  UNL1        0.0000
     19 S          -0.0698   -1.3907    0.0992 S.2     1  UNL1        0.0000
     20 C          -1.2796   -0.1588    0.0287 C.ar    1  UNL1        0.0000
     21 C          -2.7137   -0.2731    0.1266 C.ar    1  UNL1        0.0000
     22 C          -3.4427   -1.5760    0.3211 C.ar    1  UNL1        0.0000
     23 C          -2.9585   -2.8320    0.4404 C.2     1  UNL1        0.0000
     24 C           4.9964    0.0107   -0.3603 C.ar    1  UNL1        0.0000
     25 C           5.9500    1.0172   -0.5324 C.ar    1  UNL1        0.0000
     26 C           7.3031    0.6855   -0.5737 C.ar    1  UNL1        0.0000
     27 C           7.6809   -0.6429   -0.4428 C.ar    1  UNL1        0.0000
     28 C           6.6854   -1.5879   -0.2753 C.ar    1  UNL1        0.0000
     29 N           5.3663   -1.2950   -0.2315 N.ar    1  UNL1        0.0000
     30 H          -4.2583   -4.7531    2.0055 H       1  UNL1        0.0000
     31 H          -4.4020   -5.0441   -0.4831 H       1  UNL1        0.0000
     32 H          -6.5995   -2.9173    0.6610 H       1  UNL1        0.0000
     33 H          -6.7469   -0.3272    0.3672 H       1  UNL1        0.0000
     34 H          -5.5894    1.7625    0.0572 H       1  UNL1        0.0000
     35 H          -4.5000    3.5821   -0.2157 H       1  UNL1        0.0000
     36 H          -0.0224    3.9727   -0.5240 H       1  UNL1        0.0000
     37 H           1.7040    3.0079   -0.5117 H       1  UNL1        0.0000
     38 H           2.8915   -1.7394   -0.0349 H       1  UNL1        0.0000
     39 H          -1.9484   -3.1918    0.4245 H       1  UNL1        0.0000
     40 H           5.6444    2.0545   -0.6340 H       1  UNL1        0.0000
     41 H           8.0513    1.4615   -0.7071 H       1  UNL1        0.0000
     42 H           8.7245   -0.9349   -0.4705 H       1  UNL1        0.0000
     43 H           6.9280   -2.6414   -0.1682 H       1  UNL1        0.0000
@<TRIPOS>BOND
     1     1     2    1
     2     2     3    2
     3     3     4   ar
     4     4     5   ar
     5     5     6   ar
     6     6     7   ar
     7     7     8   ar
     8     8     9   ar
     9     9    10   ar
    10    10    11   ar
    11    11    12   ar
    12    12    13   ar
    13    13    14   ar
    14    14    15   ar
    15    15    16   ar
    16    16    17   ar
    17    17    18   ar
    18    18    19   ar
    19    19    20   ar
    20    20    21   ar
    21    21    22   ar
    22    22    23    2
    23    16    24    1
    24    24    25   ar
    25    25    26   ar
    26    26    27   ar
    27    27    28   ar
    28    28    29   ar
    29    23     1    1
    30    29    24   ar
    31    22     3   ar
    32    21     6   ar
    33    11     7   ar
    34    20    12   ar
    35    18    13   ar
    36     1    30    1
    37     1    31    1
    38     2    32    1
    39     4    33    1
    40     5    34    1
    41     8    35    1
    42    10    36    1
    43    14    37    1
    44    17    38    1
    45    23    39    1
    46    25    40    1
    47    26    41    1
    48    27    42    1
    49    28    43    1
