@<TRIPOS>MOLECULE
*****
 32 37 0 0 0
SMALL
GASTEIGER

@<TRIPOS>ATOM
      1 SI         -1.0515   -0.2204   -1.4494 Si      1  UNL1        0.0000
      2 C          -2.2395    0.1042    0.0127 C.2     1  UNL1        0.0000
      3 C          -1.5594    0.2804    1.1687 C.2     1  UNL1        0.0000
      4 C          -0.1036    0.1809    1.0190 C.ar    1  UNL1        0.0000
      5 C           0.3783   -0.0805   -0.2878 C.ar    1  UNL1        0.0000
      6 C           1.7481   -0.1984   -0.5616 C.ar    1  UNL1        0.0000
      7 S           2.5799   -0.5092   -2.0437 S.2     1  UNL1        0.0000
      8 C           4.1388   -0.4406   -1.2384 C.ar    1  UNL1        0.0000
      9 C           5.4887   -0.5884   -1.6816 C.ar    1  UNL1        0.0000
     10 C           6.3639   -0.4414   -0.6324 C.ar    1  UNL1        0.0000
     11 S           5.6033   -0.1307    0.8683 S.2     1  UNL1        0.0000
     12 C           4.0299   -0.1902    0.1095 C.ar    1  UNL1        0.0000
     13 C           2.6688   -0.0588    0.4594 C.ar    1  UNL1        0.0000
     14 C           2.2731    0.2082    1.8201 C.ar    1  UNL1        0.0000
     15 N           3.1029    0.3523    2.8403 N.ar    1  UNL1        0.0000
     16 S           2.0752    0.6377    4.1296 S.2     1  UNL1        0.0000
     17 N           0.5890    0.5723    3.3629 N.ar    1  UNL1        0.0000
     18 C           0.8342    0.3235    2.0606 C.ar    1  UNL1        0.0000
     19 C          -3.6556    0.1615   -0.0586 C.ar    1  UNL1        0.0000
     20 C          -4.6342    0.3847    0.8989 C.ar    1  UNL1        0.0000
     21 C          -5.9003    0.3328    0.2696 C.ar    1  UNL1        0.0000
     22 C          -5.6778    0.0790   -1.0614 C.ar    1  UNL1        0.0000
     23 N          -4.3234   -0.0230   -1.2519 N.ar    1  UNL1        0.0000
     24 H          -1.1275    0.8691   -2.4556 H       1  UNL1        0.0000
     25 H          -1.2494   -1.5809   -2.0106 H       1  UNL1        0.0000
     26 H          -1.9989    0.4784    2.1381 H       1  UNL1        0.0000
     27 H           5.7884   -0.7889   -2.7023 H       1  UNL1        0.0000
     28 H           7.4435   -0.5019   -0.6688 H       1  UNL1        0.0000
     29 H          -4.4572    0.5679    1.9510 H       1  UNL1        0.0000
     30 H          -6.8660    0.4664    0.7394 H       1  UNL1        0.0000
     31 H          -6.3630   -0.0382   -1.8901 H       1  UNL1        0.0000
     32 H          -3.8987   -0.2079   -2.1494 H       1  UNL1        0.0000
@<TRIPOS>BOND
     1     1     2    1
     2     2     3    2
     3     3     4    1
     4     4     5   ar
     5     5     6   ar
     6     6     7   ar
     7     7     8   ar
     8     8     9   ar
     9     9    10   ar
    10    10    11   ar
    11    11    12   ar
    12    12    13   ar
    13    13    14   ar
    14    14    15   ar
    15    15    16   ar
    16    16    17   ar
    17    17    18   ar
    18     2    19    1
    19    19    20   ar
    20    20    21   ar
    21    21    22   ar
    22    22    23   ar
    23     5     1    1
    24    13     6   ar
    25    18    14   ar
    26    23    19   ar
    27    18     4   ar
    28    12     8   ar
    29     1    24    1
    30     1    25    1
    31     3    26    1
    32     9    27    1
    33    10    28    1
    34    20    29    1
    35    21    30    1
    36    22    31    1
    37    23    32    1
