@<TRIPOS>MOLECULE
*****
 41 47 0 0 0
SMALL
GASTEIGER

@<TRIPOS>ATOM
      1 SI         -5.4570   -2.6121   -0.4103 Si      1  UNL1        0.0000
      2 C          -6.0192   -0.8474   -0.3488 C.2     1  UNL1        0.0000
      3 C          -4.9747   -0.0018   -0.2653 C.ar    1  UNL1        0.0000
      4 C          -5.1412    1.4285   -0.2036 C.ar    1  UNL1        0.0000
      5 C          -4.0668    2.2235   -0.1214 C.ar    1  UNL1        0.0000
      6 C          -2.6986    1.6697   -0.0916 C.ar    1  UNL1        0.0000
      7 C          -1.6143    2.6109   -0.0019 C.ar    1  UNL1        0.0000
      8 N          -1.7010    3.9543    0.0588 N.ar    1  UNL1        0.0000
      9 S          -0.1531    4.5384    0.1503 S.2     1  UNL1        0.0000
     10 N           0.7144    3.1251    0.1185 N.ar    1  UNL1        0.0000
     11 C          -0.1880    2.1314    0.0339 C.ar    1  UNL1        0.0000
     12 C           0.0599    0.7490   -0.0220 C.ar    1  UNL1        0.0000
     13 C          -1.0549   -0.1694   -0.1118 C.ar    1  UNL1        0.0000
     14 SI         -0.2361   -1.9731   -0.1642 Si      1  UNL1        0.0000
     15 C           1.4750   -1.2418   -0.0588 C.ar    1  UNL1        0.0000
     16 C           2.8159   -1.6062   -0.0209 C.ar    1  UNL1        0.0000
     17 C           3.5344   -0.4150    0.0655 C.ar    1  UNL1        0.0000
     18 N           2.6250    0.6325    0.0781 N.ar    1  UNL1        0.0000
     19 C           1.3633    0.1238    0.0018 C.ar    1  UNL1        0.0000
     20 C           4.9478   -0.1951    0.1343 C.ar    1  UNL1        0.0000
     21 C           5.6689    0.9820    0.2196 C.ar    1  UNL1        0.0000
     22 C           7.0461    0.6495    0.2608 C.ar    1  UNL1        0.0000
     23 C           7.1360   -0.7213    0.1998 C.ar    1  UNL1        0.0000
     24 N           5.8624   -1.2222    0.1236 N.ar    1  UNL1        0.0000
     25 C          -2.4109    0.2519   -0.1476 C.ar    1  UNL1        0.0000
     26 C          -3.6235   -0.6313   -0.2399 C.ar    1  UNL1        0.0000
     27 C          -3.6889   -1.9787   -0.3072 C.2     1  UNL1        0.0000
     28 H          -5.7358   -3.2656   -1.7113 H       1  UNL1        0.0000
     29 H          -5.8389   -3.3858    0.7950 H       1  UNL1        0.0000
     30 H          -7.0657   -0.5875   -0.3794 H       1  UNL1        0.0000
     31 H          -6.1406    1.8507   -0.2245 H       1  UNL1        0.0000
     32 H          -4.1925    3.3012   -0.0750 H       1  UNL1        0.0000
     33 H          -0.6378   -2.7567    1.0329 H       1  UNL1        0.0000
     34 H          -0.5350   -2.6377   -1.4592 H       1  UNL1        0.0000
     35 H           3.2322   -2.6039   -0.0513 H       1  UNL1        0.0000
     36 H           2.8560    1.6159    0.1346 H       1  UNL1        0.0000
     37 H           5.2582    1.9823    0.2498 H       1  UNL1        0.0000
     38 H           7.8788    1.3375    0.3275 H       1  UNL1        0.0000
     39 H           7.9915   -1.3830    0.2039 H       1  UNL1        0.0000
     40 H           5.6252   -2.2023    0.0675 H       1  UNL1        0.0000
     41 H          -2.9167   -2.7202   -0.3110 H       1  UNL1        0.0000
@<TRIPOS>BOND
     1     1     2    1
     2     2     3    2
     3     3     4   ar
     4     4     5   ar
     5     5     6   ar
     6     6     7   ar
     7     7     8   ar
     8     8     9   ar
     9     9    10   ar
    10    10    11   ar
    11    11    12   ar
    12    12    13   ar
    13    13    14    1
    14    14    15    1
    15    15    16   ar
    16    16    17   ar
    17    17    18   ar
    18    18    19   ar
    19    17    20    1
    20    20    21   ar
    21    21    22   ar
    22    22    23   ar
    23    23    24   ar
    24    13    25   ar
    25    25    26   ar
    26    26    27    2
    27    27     1    1
    28    26     3   ar
    29    25     6   ar
    30    11     7   ar
    31    12    19    1
    32    24    20   ar
    33    19    15   ar
    34     1    28    1
    35     1    29    1
    36     2    30    1
    37     4    31    1
    38     5    32    1
    39    14    33    1
    40    14    34    1
    41    16    35    1
    42    18    36    1
    43    21    37    1
    44    22    38    1
    45    23    39    1
    46    24    40    1
    47    27    41    1
