@<TRIPOS>MOLECULE
*****
 45 52 0 0 0
SMALL
GASTEIGER

@<TRIPOS>ATOM
      1 SI         -5.0062    1.2009    3.6126 Si      1  UNL1        0.0000
      2 C          -6.0924    0.3785    2.3508 C.2     1  UNL1        0.0000
      3 C          -5.3774   -0.0458    1.2918 C.ar    1  UNL1        0.0000
      4 C          -5.9838   -0.6774    0.1435 C.ar    1  UNL1        0.0000
      5 C          -5.2257   -1.0431   -0.8999 C.ar    1  UNL1        0.0000
      6 C          -3.7666   -0.8344   -0.8897 C.ar    1  UNL1        0.0000
      7 C          -3.0028   -1.2942   -1.9832 C.ar    1  UNL1        0.0000
      8 N          -3.4732   -1.9357   -3.0766 N.ar    1  UNL1        0.0000
      9 S          -2.1609   -2.3464   -4.0131 S.2     1  UNL1        0.0000
     10 N          -0.9366   -1.7014   -3.0891 N.ar    1  UNL1        0.0000
     11 C          -1.5617   -1.1386   -2.0676 C.ar    1  UNL1        0.0000
     12 C          -0.8750   -0.4748   -0.9801 C.ar    1  UNL1        0.0000
     13 C          -1.6340   -0.1500    0.1517 C.ar    1  UNL1        0.0000
     14 S          -0.5180    0.2909    1.4091 S.2     1  UNL1        0.0000
     15 C           0.8773    0.1670    0.4215 C.ar    1  UNL1        0.0000
     16 C           2.2182    0.3806    0.8465 C.ar    1  UNL1        0.0000
     17 C           3.2967    0.3154   -0.0477 C.ar    1  UNL1        0.0000
     18 C           4.6694    0.5192    0.3698 C.2     1  UNL1        0.0000
     19 C           5.2600    1.6978    0.6534 C.2     1  UNL1        0.0000
     20 C           6.6433    1.6034    1.0941 C.2     1  UNL1        0.0000
     21 C           7.1361    0.3538    1.1761 C.2     1  UNL1        0.0000
     22 SI          5.8484   -0.9278    0.6744 Si      1  UNL1        0.0000
     23 C           2.9004    0.1236   -1.3759 C.ar    1  UNL1        0.0000
     24 C           3.7895    0.1678   -2.4320 C.ar    1  UNL1        0.0000
     25 S           3.0087    0.0169   -3.9550 S.2     1  UNL1        0.0000
     26 C           1.4582   -0.0926   -3.2198 C.ar    1  UNL1        0.0000
     27 C           1.5724   -0.0907   -1.8583 C.ar    1  UNL1        0.0000
     28 C           0.5009   -0.1546   -0.8739 C.ar    1  UNL1        0.0000
     29 C          -3.0625   -0.2480    0.2023 C.ar    1  UNL1        0.0000
     30 C          -3.9081    0.2051    1.3552 C.ar    1  UNL1        0.0000
     31 C          -3.5509    0.8691    2.4760 C.2     1  UNL1        0.0000
     32 H          -5.2880    2.6495    3.7543 H       1  UNL1        0.0000
     33 H          -4.9161    0.4351    4.8789 H       1  UNL1        0.0000
     34 H          -7.1591    0.3007    2.4910 H       1  UNL1        0.0000
     35 H          -7.0569   -0.8392    0.1309 H       1  UNL1        0.0000
     36 H          -5.6797   -1.5120   -1.7679 H       1  UNL1        0.0000
     37 H           2.4102    0.6014    1.8960 H       1  UNL1        0.0000
     38 H           4.7693    2.6605    0.5729 H       1  UNL1        0.0000
     39 H           7.2119    2.4933    1.3354 H       1  UNL1        0.0000
     40 H           8.1296    0.0648    1.4802 H       1  UNL1        0.0000
     41 H           5.4383   -1.7774    1.8203 H       1  UNL1        0.0000
     42 H           6.2330   -1.6300   -0.5753 H       1  UNL1        0.0000
     43 H           4.8607    0.3145   -2.4146 H       1  UNL1        0.0000
     44 H           0.5931   -0.1225   -3.8609 H       1  UNL1        0.0000
     45 H          -2.5897    1.2268    2.7921 H       1  UNL1        0.0000
@<TRIPOS>BOND
     1     1     2    1
     2     2     3    2
     3     3     4   ar
     4     4     5   ar
     5     5     6   ar
     6     6     7   ar
     7     7     8   ar
     8     8     9   ar
     9     9    10   ar
    10    10    11   ar
    11    11    12   ar
    12    12    13   ar
    13    13    14   ar
    14    14    15   ar
    15    15    16   ar
    16    16    17   ar
    17    17    18    1
    18    18    19    2
    19    19    20    1
    20    20    21    2
    21    21    22    1
    22    17    23   ar
    23    23    24   ar
    24    24    25   ar
    25    25    26   ar
    26    26    27   ar
    27    27    28   ar
    28    13    29   ar
    29    29    30   ar
    30    30    31    2
    31    31     1    1
    32    30     3   ar
    33    29     6   ar
    34    11     7   ar
    35    28    12   ar
    36    28    15   ar
    37    22    18    1
    38    27    23   ar
    39     1    32    1
    40     1    33    1
    41     2    34    1
    42     4    35    1
    43     5    36    1
    44    16    37    1
    45    19    38    1
    46    20    39    1
    47    21    40    1
    48    22    41    1
    49    22    42    1
    50    24    43    1
    51    26    44    1
    52    31    45    1
