@<TRIPOS>MOLECULE
*****
 43 50 0 0 0
SMALL
GASTEIGER

@<TRIPOS>ATOM
      1 SI         -5.7745   -1.3625    2.4287 Si      1  UNL1        0.0000
      2 C          -6.3800   -0.1221    1.1848 C.2     1  UNL1        0.0000
      3 C          -5.3679    0.3385    0.4253 C.ar    1  UNL1        0.0000
      4 C          -5.5780    1.1741   -0.7309 C.ar    1  UNL1        0.0000
      5 C          -4.5502    1.4462   -1.5469 C.ar    1  UNL1        0.0000
      6 C          -3.1813    0.9901   -1.2355 C.ar    1  UNL1        0.0000
      7 C          -2.1448    1.2912   -2.1613 C.ar    1  UNL1        0.0000
      8 N          -2.2861    1.8842   -3.3626 N.ar    1  UNL1        0.0000
      9 S          -0.7801    1.9643   -4.0414 S.2     1  UNL1        0.0000
     10 N           0.1219    1.2780   -2.8417 N.ar    1  UNL1        0.0000
     11 C          -0.7168    0.9495   -1.8424 C.ar    1  UNL1        0.0000
     12 C          -0.3814    0.3762   -0.5825 C.ar    1  UNL1        0.0000
     13 C           0.9490    0.1074   -0.2216 C.ar    1  UNL1        0.0000
     14 O           2.0584    0.2689   -0.9961 O.2     1  UNL1        0.0000
     15 C           3.1636   -0.1023   -0.2737 C.ar    1  UNL1        0.0000
     16 C           2.7404   -0.4976    0.9846 C.ar    1  UNL1        0.0000
     17 C           1.3275   -0.3652    1.0237 C.ar    1  UNL1        0.0000
     18 C           0.3359   -0.5677    1.9874 C.ar    1  UNL1        0.0000
     19 C          -1.0059   -0.3207    1.6399 C.ar    1  UNL1        0.0000
     20 C          -1.4328    0.1005    0.3544 C.ar    1  UNL1        0.0000
     21 C          -2.8203    0.3055   -0.0229 C.ar    1  UNL1        0.0000
     22 C          -4.0120   -0.1641    0.7747 C.ar    1  UNL1        0.0000
     23 C          -4.0520   -1.1290    1.7205 C.2     1  UNL1        0.0000
     24 C           4.4923   -0.0508   -0.8127 C.ar    1  UNL1        0.0000
     25 S           4.7937    0.5026   -2.4438 S.2     1  UNL1        0.0000
     26 C           6.5064    0.2797   -2.3321 C.ar    1  UNL1        0.0000
     27 C           6.7730   -0.1908   -1.1016 C.ar    1  UNL1        0.0000
     28 O           8.0042   -0.4986   -0.6115 O.2     1  UNL1        0.0000
     29 C           7.6508   -0.9168    0.6567 C.ar    1  UNL1        0.0000
     30 C           6.2752   -0.8629    0.9158 C.ar    1  UNL1        0.0000
     31 C           5.6921   -0.3736   -0.2712 C.ar    1  UNL1        0.0000
     32 H          -6.2976   -2.7278    2.1852 H       1  UNL1        0.0000
     33 H          -5.8690   -0.8744    3.8254 H       1  UNL1        0.0000
     34 H          -7.4309    0.0921    1.0693 H       1  UNL1        0.0000
     35 H          -6.5780    1.5262   -0.9622 H       1  UNL1        0.0000
     36 H          -4.7072    2.0422   -2.4413 H       1  UNL1        0.0000
     37 H           3.3724   -0.8377    1.7910 H       1  UNL1        0.0000
     38 H           0.5889   -0.8936    2.9924 H       1  UNL1        0.0000
     39 H          -1.7221   -0.4191    2.4510 H       1  UNL1        0.0000
     40 H          -3.2625   -1.7640    2.0811 H       1  UNL1        0.0000
     41 H           7.1941    0.4952   -3.1364 H       1  UNL1        0.0000
     42 H           8.4910   -1.2255    1.2653 H       1  UNL1        0.0000
     43 H           5.8006   -1.1460    1.8432 H       1  UNL1        0.0000
@<TRIPOS>BOND
     1     1     2    1
     2     2     3    2
     3     3     4   ar
     4     4     5   ar
     5     5     6   ar
     6     6     7   ar
     7     7     8   ar
     8     8     9   ar
     9     9    10   ar
    10    10    11   ar
    11    11    12   ar
    12    12    13   ar
    13    13    14   ar
    14    14    15   ar
    15    15    16   ar
    16    16    17   ar
    17    17    18   ar
    18    18    19   ar
    19    19    20   ar
    20    20    21   ar
    21    21    22   ar
    22    22    23    2
    23    15    24    1
    24    24    25   ar
    25    25    26   ar
    26    26    27   ar
    27    27    28   ar
    28    28    29   ar
    29    29    30   ar
    30    30    31   ar
    31    23     1    1
    32    31    24   ar
    33    22     3   ar
    34    31    27   ar
    35    21     6   ar
    36    11     7   ar
    37    20    12   ar
    38    17    13   ar
    39     1    32    1
    40     1    33    1
    41     2    34    1
    42     4    35    1
    43     5    36    1
    44    16    37    1
    45    18    38    1
    46    19    39    1
    47    23    40    1
    48    26    41    1
    49    29    42    1
    50    30    43    1
