@<TRIPOS>MOLECULE
*****
 38 42 0 0 0
SMALL
GASTEIGER

@<TRIPOS>ATOM
      1 SI         -5.5306    2.1393   -0.8511 Si      1  UNL1        0.0000
      2 C          -5.8902    0.3453   -0.4712 C.2     1  UNL1        0.0000
      3 C          -4.7492   -0.3434   -0.2793 C.ar    1  UNL1        0.0000
      4 C          -4.6920   -1.7542    0.0317 C.ar    1  UNL1        0.0000
      5 C          -3.5034   -2.3568    0.2065 C.ar    1  UNL1        0.0000
      6 C          -2.2254   -1.6144    0.0900 C.ar    1  UNL1        0.0000
      7 C          -1.0184   -2.2998    0.2836 C.ar    1  UNL1        0.0000
      8 C           0.2149   -1.6350    0.1823 C.ar    1  UNL1        0.0000
      9 C           1.4270   -2.3085    0.3736 C.ar    1  UNL1        0.0000
     10 C           2.6516   -1.6339    0.2699 C.ar    1  UNL1        0.0000
     11 C           2.7179   -0.2621   -0.0285 C.ar    1  UNL1        0.0000
     12 C           1.4835    0.3971   -0.2173 C.ar    1  UNL1        0.0000
     13 C           0.2414   -0.2602   -0.1180 C.ar    1  UNL1        0.0000
     14 C          -0.9695    0.4275   -0.3122 C.ar    1  UNL1        0.0000
     15 C          -2.2027   -0.2311   -0.2122 C.ar    1  UNL1        0.0000
     16 C          -3.5054    0.4487   -0.4080 C.ar    1  UNL1        0.0000
     17 C          -3.7045    1.7512   -0.7004 C.2     1  UNL1        0.0000
     18 C           4.0009    0.4850   -0.1461 C.ar    1  UNL1        0.0000
     19 C           5.2613   -0.0924    0.0245 C.ar    1  UNL1        0.0000
     20 C           6.4085    0.6926   -0.1063 C.ar    1  UNL1        0.0000
     21 C           6.2831    2.0402   -0.4048 C.ar    1  UNL1        0.0000
     22 C           5.0091    2.5481   -0.5607 C.ar    1  UNL1        0.0000
     23 N           3.8843    1.8086   -0.4391 N.ar    1  UNL1        0.0000
     24 H          -6.0062    3.0518    0.2168 H       1  UNL1        0.0000
     25 H          -5.9181    2.5156   -2.2323 H       1  UNL1        0.0000
     26 H          -6.8993   -0.0312   -0.4251 H       1  UNL1        0.0000
     27 H          -5.6172   -2.3132    0.1208 H       1  UNL1        0.0000
     28 H          -3.4583   -3.4153    0.4400 H       1  UNL1        0.0000
     29 H          -1.0359   -3.3623    0.5157 H       1  UNL1        0.0000
     30 H           1.4336   -3.3713    0.6068 H       1  UNL1        0.0000
     31 H           3.5507   -2.2209    0.4310 H       1  UNL1        0.0000
     32 H           1.4891    1.4623   -0.4505 H       1  UNL1        0.0000
     33 H          -0.9387    1.4887   -0.5435 H       1  UNL1        0.0000
     34 H          -2.9683    2.5243   -0.8432 H       1  UNL1        0.0000
     35 H           5.3834   -1.1429    0.2579 H       1  UNL1        0.0000
     36 H           7.3914    0.2490    0.0253 H       1  UNL1        0.0000
     37 H           7.1532    2.6770   -0.5130 H       1  UNL1        0.0000
     38 H           4.8483    3.5964   -0.7952 H       1  UNL1        0.0000
@<TRIPOS>BOND
     1     1     2    1
     2     2     3    2
     3     3     4   ar
     4     4     5   ar
     5     5     6   ar
     6     6     7   ar
     7     7     8   ar
     8     8     9   ar
     9     9    10   ar
    10    10    11   ar
    11    11    12   ar
    12    12    13   ar
    13    13    14   ar
    14    14    15   ar
    15    15    16   ar
    16    16    17    2
    17    11    18    1
    18    18    19   ar
    19    19    20   ar
    20    20    21   ar
    21    21    22   ar
    22    22    23   ar
    23    17     1    1
    24    23    18   ar
    25    16     3   ar
    26    15     6   ar
    27    13     8   ar
    28     1    24    1
    29     1    25    1
    30     2    26    1
    31     4    27    1
    32     5    28    1
    33     7    29    1
    34     9    30    1
    35    10    31    1
    36    12    32    1
    37    14    33    1
    38    17    34    1
    39    19    35    1
    40    20    36    1
    41    21    37    1
    42    22    38    1
