@<TRIPOS>MOLECULE
*****
 41 46 0 0 0
SMALL
GASTEIGER

@<TRIPOS>ATOM
      1 SI          4.9319    2.7610    0.4169 Si      1  UNL1        0.0000
      2 C           5.6982    1.0755    0.1626 C.2     1  UNL1        0.0000
      3 C           4.7482    0.1290    0.0420 C.ar    1  UNL1        0.0000
      4 C           5.0198   -1.2764   -0.1634 C.ar    1  UNL1        0.0000
      5 C           4.0035   -2.1494   -0.2716 C.ar    1  UNL1        0.0000
      6 C           2.5887   -1.7163   -0.1867 C.ar    1  UNL1        0.0000
      7 C           1.5742   -2.6726   -0.3055 C.ar    1  UNL1        0.0000
      8 C           0.2317   -2.2912   -0.2308 C.ar    1  UNL1        0.0000
      9 C          -0.1289   -0.9497   -0.0404 C.ar    1  UNL1        0.0000
     10 C           0.8922    0.0076    0.0850 C.ar    1  UNL1        0.0000
     11 C           2.2451   -0.3555    0.0123 C.ar    1  UNL1        0.0000
     12 C           3.3548    0.6195    0.1344 C.ar    1  UNL1        0.0000
     13 C           3.2461    1.9510    0.3268 C.2     1  UNL1        0.0000
     14 C          -1.5337   -0.5629    0.0435 C.ar    1  UNL1        0.0000
     15 C          -2.4002   -0.9922    1.0877 C.ar    1  UNL1        0.0000
     16 C          -3.7587   -0.5805    1.1279 C.ar    1  UNL1        0.0000
     17 N          -4.7783   -0.8472    2.0182 N.ar    1  UNL1        0.0000
     18 C          -5.9387   -0.2097    1.6228 C.ar    1  UNL1        0.0000
     19 C          -5.6883    0.4899    0.4580 C.ar    1  UNL1        0.0000
     20 C          -4.3469    0.2431    0.1846 C.ar    1  UNL1        0.0000
     21 C          -3.5232    0.6895   -0.8788 C.ar    1  UNL1        0.0000
     22 C          -3.8183    1.4853   -1.9431 C.ar    1  UNL1        0.0000
     23 N          -2.6376    1.5651   -2.6531 N.ar    1  UNL1        0.0000
     24 C          -1.6452    0.8280   -2.0254 C.ar    1  UNL1        0.0000
     25 C          -2.1827    0.2664   -0.8857 C.ar    1  UNL1        0.0000
     26 H           5.2224    3.3198    1.7595 H       1  UNL1        0.0000
     27 H           5.1821    3.6753   -0.7237 H       1  UNL1        0.0000
     28 H           6.7672    0.9404    0.1266 H       1  UNL1        0.0000
     29 H           6.0494   -1.6113   -0.2280 H       1  UNL1        0.0000
     30 H           4.2043   -3.2043   -0.4258 H       1  UNL1        0.0000
     31 H           1.8155   -3.7211   -0.4598 H       1  UNL1        0.0000
     32 H          -0.5405   -3.0512   -0.3342 H       1  UNL1        0.0000
     33 H           0.6130    1.0461    0.2442 H       1  UNL1        0.0000
     34 H           2.3498    2.5402    0.4262 H       1  UNL1        0.0000
     35 H          -2.0104   -1.6363    1.8730 H       1  UNL1        0.0000
     36 H          -4.6852   -1.4265    2.8409 H       1  UNL1        0.0000
     37 H          -6.8414   -0.3124    2.2098 H       1  UNL1        0.0000
     38 H          -6.3947    1.0895   -0.0985 H       1  UNL1        0.0000
     39 H          -4.7162    1.9879   -2.2728 H       1  UNL1        0.0000
     40 H          -2.5130    2.0807   -3.5143 H       1  UNL1        0.0000
     41 H          -0.6560    0.7759   -2.4603 H       1  UNL1        0.0000
@<TRIPOS>BOND
     1     1     2    1
     2     2     3    2
     3     3     4   ar
     4     4     5   ar
     5     5     6   ar
     6     6     7   ar
     7     7     8   ar
     8     8     9   ar
     9     9    10   ar
    10    10    11   ar
    11    11    12   ar
    12    12    13    2
    13     9    14    1
    14    14    15   ar
    15    15    16   ar
    16    16    17   ar
    17    17    18   ar
    18    18    19   ar
    19    19    20   ar
    20    20    21   ar
    21    21    22   ar
    22    22    23   ar
    23    23    24   ar
    24    24    25   ar
    25    13     1    1
    26    25    14   ar
    27    12     3   ar
    28    20    16   ar
    29    25    21   ar
    30    11     6   ar
    31     1    26    1
    32     1    27    1
    33     2    28    1
    34     4    29    1
    35     5    30    1
    36     7    31    1
    37     8    32    1
    38    10    33    1
    39    13    34    1
    40    15    35    1
    41    17    36    1
    42    18    37    1
    43    19    38    1
    44    22    39    1
    45    23    40    1
    46    24    41    1
