@<TRIPOS>MOLECULE
*****
 44 50 0 0 0
SMALL
GASTEIGER

@<TRIPOS>ATOM
      1 SI         -4.3241    3.4345   -1.9615 Si      1  UNL1        0.0000
      2 C          -5.5527    2.0320   -1.8376 C.2     1  UNL1        0.0000
      3 C          -4.9601    0.9123   -1.3814 C.ar    1  UNL1        0.0000
      4 C          -5.6497   -0.3435   -1.1764 C.ar    1  UNL1        0.0000
      5 C          -4.9828   -1.4161   -0.7159 C.ar    1  UNL1        0.0000
      6 C          -3.5348   -1.3605   -0.4030 C.ar    1  UNL1        0.0000
      7 C          -2.8963   -2.5084    0.0729 C.ar    1  UNL1        0.0000
      8 C          -1.5280   -2.5011    0.3817 C.ar    1  UNL1        0.0000
      9 C          -0.7719   -1.3210    0.2128 C.ar    1  UNL1        0.0000
     10 C          -1.4388   -0.1893   -0.2646 C.ar    1  UNL1        0.0000
     11 O          -0.5614    0.8464   -0.3645 O.2     1  UNL1        0.0000
     12 C           0.6531    0.4040    0.0378 C.ar    1  UNL1        0.0000
     13 C           1.7914    1.1994    0.0640 C.ar    1  UNL1        0.0000
     14 C           2.9879    0.6075    0.5001 C.ar    1  UNL1        0.0000
     15 C           4.1934    1.4492    0.5298 C.ar    1  UNL1        0.0000
     16 N           4.8595    1.7807    1.6179 N.ar    1  UNL1        0.0000
     17 C           5.9394    2.5737    1.2843 C.ar    1  UNL1        0.0000
     18 C           6.0958    2.8322   -0.0592 C.ar    1  UNL1        0.0000
     19 S           4.8487    2.0601   -0.9446 S.2     1  UNL1        0.0000
     20 C           3.0175   -0.7538    0.9124 C.ar    1  UNL1        0.0000
     21 C           4.1945   -1.3956    1.3683 C.ar    1  UNL1        0.0000
     22 C           4.2058   -2.7354    1.7607 C.ar    1  UNL1        0.0000
     23 C           3.0380   -3.4807    1.7097 C.ar    1  UNL1        0.0000
     24 C           1.8561   -2.8883    1.2676 C.ar    1  UNL1        0.0000
     25 C           1.8210   -1.5338    0.8660 C.ar    1  UNL1        0.0000
     26 C           0.6036   -0.9314    0.4131 C.ar    1  UNL1        0.0000
     27 C          -2.8038   -0.1582   -0.5833 C.ar    1  UNL1        0.0000
     28 C          -3.5115    1.0368   -1.0881 C.ar    1  UNL1        0.0000
     29 C          -3.0098    2.2664   -1.3274 C.2     1  UNL1        0.0000
     30 H          -4.0881    3.8539   -3.3644 H       1  UNL1        0.0000
     31 H          -4.6233    4.5315   -1.0094 H       1  UNL1        0.0000
     32 H          -6.5875    2.1629   -2.1099 H       1  UNL1        0.0000
     33 H          -6.7097   -0.4034   -1.3997 H       1  UNL1        0.0000
     34 H          -5.5026   -2.3562   -0.5629 H       1  UNL1        0.0000
     35 H          -3.4560   -3.4313    0.2122 H       1  UNL1        0.0000
     36 H          -1.0772   -3.4164    0.7484 H       1  UNL1        0.0000
     37 H           1.7386    2.2402   -0.2369 H       1  UNL1        0.0000
     38 H           6.5893    2.9394    2.0701 H       1  UNL1        0.0000
     39 H           6.8594    3.4192   -0.5483 H       1  UNL1        0.0000
     40 H           5.1343   -0.8488    1.4329 H       1  UNL1        0.0000
     41 H           5.1299   -3.1897    2.1089 H       1  UNL1        0.0000
     42 H           3.0433   -4.5234    2.0161 H       1  UNL1        0.0000
     43 H           0.9674   -3.5060    1.2458 H       1  UNL1        0.0000
     44 H          -1.9976    2.6098   -1.1953 H       1  UNL1        0.0000
@<TRIPOS>BOND
     1     1     2    1
     2     2     3    2
     3     3     4   ar
     4     4     5   ar
     5     5     6   ar
     6     6     7   ar
     7     7     8   ar
     8     8     9   ar
     9     9    10   ar
    10    10    11   ar
    11    11    12   ar
    12    12    13   ar
    13    13    14   ar
    14    14    15    1
    15    15    16   ar
    16    16    17   ar
    17    17    18   ar
    18    18    19   ar
    19    14    20   ar
    20    20    21   ar
    21    21    22   ar
    22    22    23   ar
    23    23    24   ar
    24    24    25   ar
    25    25    26   ar
    26    10    27   ar
    27    27    28   ar
    28    28    29    2
    29    29     1    1
    30    28     3   ar
    31    27     6   ar
    32    26     9   ar
    33    26    12   ar
    34    19    15   ar
    35    25    20   ar
    36     1    30    1
    37     1    31    1
    38     2    32    1
    39     4    33    1
    40     5    34    1
    41     7    35    1
    42     8    36    1
    43    13    37    1
    44    17    38    1
    45    18    39    1
    46    21    40    1
    47    22    41    1
    48    23    42    1
    49    24    43    1
    50    29    44    1
