@<TRIPOS>MOLECULE
*****
 44 50 0 0 0
SMALL
GASTEIGER

@<TRIPOS>ATOM
      1 SI         -5.8373    1.5827   -2.7194 Si      1  UNL1        0.0000
      2 C          -6.6679    0.6081   -1.3634 C.2     1  UNL1        0.0000
      3 C          -5.7587    0.0953   -0.5116 C.ar    1  UNL1        0.0000
      4 C          -6.1089   -0.6522    0.6721 C.ar    1  UNL1        0.0000
      5 C          -5.1452   -1.0590    1.5121 C.ar    1  UNL1        0.0000
      6 C          -3.7108   -0.8006    1.2423 C.ar    1  UNL1        0.0000
      7 C          -2.7872   -1.2585    2.1767 C.ar    1  UNL1        0.0000
      8 C          -1.4263   -1.0889    1.9517 C.ar    1  UNL1        0.0000
      9 C          -0.9386   -0.5036    0.7614 C.ar    1  UNL1        0.0000
     10 C           0.4682   -0.3774    0.4847 C.ar    1  UNL1        0.0000
     11 C           1.5201   -0.6807    1.3674 C.ar    1  UNL1        0.0000
     12 N           2.8468   -0.5821    1.0893 N.ar    1  UNL1        0.0000
     13 C           3.1974   -0.1985   -0.1576 C.ar    1  UNL1        0.0000
     14 C           2.2478    0.1577   -1.1016 C.ar    1  UNL1        0.0000
     15 C           0.8859    0.0911   -0.7672 C.ar    1  UNL1        0.0000
     16 C          -0.0992    0.4831   -1.6552 C.ar    1  UNL1        0.0000
     17 N          -1.4202    0.4381   -1.3925 N.ar    1  UNL1        0.0000
     18 C          -1.8694   -0.0500   -0.2134 C.ar    1  UNL1        0.0000
     19 C          -3.2571   -0.1487    0.0592 C.ar    1  UNL1        0.0000
     20 C          -4.3394    0.3780   -0.8416 C.ar    1  UNL1        0.0000
     21 C          -4.1998    1.1536   -1.9395 C.2     1  UNL1        0.0000
     22 C           4.6348   -0.1475   -0.4115 C.ar    1  UNL1        0.0000
     23 S           5.3564   -0.2923   -1.9884 S.2     1  UNL1        0.0000
     24 C           6.9794   -0.0966   -1.3901 C.ar    1  UNL1        0.0000
     25 C           6.9049    0.0643   -0.0548 C.ar    1  UNL1        0.0000
     26 C           7.7198    0.3215    1.0759 C.ar    1  UNL1        0.0000
     27 C           6.8599    0.4146    2.1916 C.ar    1  UNL1        0.0000
     28 N           5.5294    0.2143    1.8294 N.ar    1  UNL1        0.0000
     29 C           5.6381    0.0313    0.4809 C.ar    1  UNL1        0.0000
     30 H          -6.0258    0.9821   -4.0585 H       1  UNL1        0.0000
     31 H          -6.1469    3.0322   -2.6305 H       1  UNL1        0.0000
     32 H          -7.7416    0.5282   -1.3020 H       1  UNL1        0.0000
     33 H          -7.1532   -0.8616    0.8778 H       1  UNL1        0.0000
     34 H          -5.4091   -1.6181    2.4052 H       1  UNL1        0.0000
     35 H          -3.1136   -1.7608    3.0824 H       1  UNL1        0.0000
     36 H          -0.7494   -1.4755    2.7113 H       1  UNL1        0.0000
     37 H           1.3294   -1.0081    2.3862 H       1  UNL1        0.0000
     38 H           2.5458    0.4890   -2.0844 H       1  UNL1        0.0000
     39 H           0.1434    0.8724   -2.6419 H       1  UNL1        0.0000
     40 H          -3.2888    1.5311   -2.3713 H       1  UNL1        0.0000
     41 H           7.8301   -0.0931   -2.0553 H       1  UNL1        0.0000
     42 H           8.7938    0.4511    1.1040 H       1  UNL1        0.0000
     43 H           7.0960    0.6269    3.2274 H       1  UNL1        0.0000
     44 H           4.6669    0.2069    2.3681 H       1  UNL1        0.0000
@<TRIPOS>BOND
     1     1     2    1
     2     2     3    2
     3     3     4   ar
     4     4     5   ar
     5     5     6   ar
     6     6     7   ar
     7     7     8   ar
     8     8     9   ar
     9     9    10   ar
    10    10    11   ar
    11    11    12   ar
    12    12    13   ar
    13    13    14   ar
    14    14    15   ar
    15    15    16   ar
    16    16    17   ar
    17    17    18   ar
    18    18    19   ar
    19    19    20   ar
    20    20    21    2
    21    13    22    1
    22    22    23   ar
    23    23    24   ar
    24    24    25   ar
    25    25    26   ar
    26    26    27   ar
    27    27    28   ar
    28    28    29   ar
    29    21     1    1
    30    29    22   ar
    31    20     3   ar
    32    29    25   ar
    33    19     6   ar
    34    18     9   ar
    35    15    10   ar
    36     1    30    1
    37     1    31    1
    38     2    32    1
    39     4    33    1
    40     5    34    1
    41     7    35    1
    42     8    36    1
    43    11    37    1
    44    14    38    1
    45    16    39    1
    46    21    40    1
    47    24    41    1
    48    26    42    1
    49    27    43    1
    50    28    44    1
