@<TRIPOS>MOLECULE
*****
 49 55 0 0 0
SMALL
GASTEIGER

@<TRIPOS>ATOM
      1 SI         -6.1497    2.8517    0.9992 Si      1  UNL1        0.0000
      2 C          -6.8037    1.1119    1.0628 C.2     1  UNL1        0.0000
      3 C          -5.8262    0.2184    0.8199 C.ar    1  UNL1        0.0000
      4 C          -6.0746   -1.1919    0.6466 C.ar    1  UNL1        0.0000
      5 C          -5.0770   -1.9922    0.2434 C.ar    1  UNL1        0.0000
      6 C          -3.7038   -1.4789    0.0568 C.ar    1  UNL1        0.0000
      7 C          -2.7187   -2.3372   -0.3751 C.ar    1  UNL1        0.0000
      8 N          -1.4229   -1.9939   -0.5108 N.ar    1  UNL1        0.0000
      9 C          -0.9794   -0.7781   -0.1384 C.ar    1  UNL1        0.0000
     10 C          -1.9216    0.1670    0.3669 C.ar    1  UNL1        0.0000
     11 C          -1.4165    1.3560    0.9133 C.ar    1  UNL1        0.0000
     12 C          -0.0651    1.6573    0.8864 C.ar    1  UNL1        0.0000
     13 C           0.8452    0.7767    0.3167 C.ar    1  UNL1        0.0000
     14 C           2.1851    1.1625    0.3249 C.ar    1  UNL1        0.0000
     15 C           3.1875    0.3456   -0.1952 C.ar    1  UNL1        0.0000
     16 C           4.5562    0.8604   -0.1135 C.2     1  UNL1        0.0000
     17 C           5.1879    1.6287   -1.0243 C.2     1  UNL1        0.0000
     18 C           6.5468    2.0095   -0.6718 C.2     1  UNL1        0.0000
     19 C           6.9832    1.5495    0.5153 C.2     1  UNL1        0.0000
     20 SI          5.6626    0.5184    1.3830 Si      1  UNL1        0.0000
     21 C           2.8496   -0.8885   -0.7867 C.ar    1  UNL1        0.0000
     22 C           3.8521   -1.7122   -1.3618 C.ar    1  UNL1        0.0000
     23 C           3.5618   -2.9326   -1.9593 C.ar    1  UNL1        0.0000
     24 C           2.2521   -3.3576   -2.0028 C.ar    1  UNL1        0.0000
     25 C           1.2465   -2.5606   -1.4459 C.ar    1  UNL1        0.0000
     26 C           1.4825   -1.3085   -0.8108 C.ar    1  UNL1        0.0000
     27 C           0.4301   -0.4657   -0.2250 C.ar    1  UNL1        0.0000
     28 C          -3.3190   -0.1541    0.3517 C.ar    1  UNL1        0.0000
     29 C          -4.4634    0.7824    0.6269 C.ar    1  UNL1        0.0000
     30 C          -4.4651    2.1336    0.5943 C.2     1  UNL1        0.0000
     31 H          -6.7118    3.6355   -0.1265 H       1  UNL1        0.0000
     32 H          -6.1671    3.5212    2.3220 H       1  UNL1        0.0000
     33 H          -7.8547    0.9098    1.1960 H       1  UNL1        0.0000
     34 H          -7.0769   -1.5798    0.7941 H       1  UNL1        0.0000
     35 H          -5.2592   -3.0492    0.0772 H       1  UNL1        0.0000
     36 H          -2.9361   -3.3684   -0.6394 H       1  UNL1        0.0000
     37 H          -2.0586    2.0570    1.4341 H       1  UNL1        0.0000
     38 H           0.2632    2.5955    1.3313 H       1  UNL1        0.0000
     39 H           2.4677    2.1247    0.7530 H       1  UNL1        0.0000
     40 H           4.7434    1.9540   -1.9574 H       1  UNL1        0.0000
     41 H           7.1424    2.6221   -1.3376 H       1  UNL1        0.0000
     42 H           7.9509    1.7144    0.9619 H       1  UNL1        0.0000
     43 H           6.0727   -0.9034    1.4965 H       1  UNL1        0.0000
     44 H           5.1798    1.1792    2.6219 H       1  UNL1        0.0000
     45 H           4.8948   -1.4007   -1.3595 H       1  UNL1        0.0000
     46 H           4.3545   -3.5361   -2.3910 H       1  UNL1        0.0000
     47 H           1.9948   -4.3035   -2.4713 H       1  UNL1        0.0000
     48 H           0.2422   -2.9593   -1.5394 H       1  UNL1        0.0000
     49 H          -3.6645    2.8094    0.3514 H       1  UNL1        0.0000
@<TRIPOS>BOND
     1     1     2    1
     2     2     3    2
     3     3     4   ar
     4     4     5   ar
     5     5     6   ar
     6     6     7   ar
     7     7     8   ar
     8     8     9   ar
     9     9    10   ar
    10    10    11   ar
    11    11    12   ar
    12    12    13   ar
    13    13    14   ar
    14    14    15   ar
    15    15    16    1
    16    16    17    2
    17    17    18    1
    18    18    19    2
    19    19    20    1
    20    15    21   ar
    21    21    22   ar
    22    22    23   ar
    23    23    24   ar
    24    24    25   ar
    25    25    26   ar
    26    26    27   ar
    27    10    28   ar
    28    28    29   ar
    29    29    30    2
    30    30     1    1
    31    29     3   ar
    32    28     6   ar
    33    27     9   ar
    34    27    13   ar
    35    20    16    1
    36    26    21   ar
    37     1    31    1
    38     1    32    1
    39     2    33    1
    40     4    34    1
    41     5    35    1
    42     7    36    1
    43    11    37    1
    44    12    38    1
    45    14    39    1
    46    17    40    1
    47    18    41    1
    48    19    42    1
    49    20    43    1
    50    20    44    1
    51    22    45    1
    52    23    46    1
    53    24    47    1
    54    25    48    1
    55    30    49    1
