@<TRIPOS>MOLECULE
*****
 41 47 0 0 0
SMALL
GASTEIGER

@<TRIPOS>ATOM
      1 SI         -6.0684    1.5134   -1.6320 Si      1  UNL1        0.0000
      2 C          -6.5682    0.5062   -0.1532 C.2     1  UNL1        0.0000
      3 C          -5.4944   -0.0208    0.4642 C.ar    1  UNL1        0.0000
      4 C          -5.5913   -0.8480    1.6425 C.ar    1  UNL1        0.0000
      5 C          -4.4750   -1.3365    2.2012 C.ar    1  UNL1        0.0000
      6 C          -3.1325   -1.0597    1.6533 C.ar    1  UNL1        0.0000
      7 N          -2.1384   -1.6558    2.3777 N.ar    1  UNL1        0.0000
      8 C          -0.8702   -1.4680    1.9637 C.ar    1  UNL1        0.0000
      9 C          -0.5607   -0.7101    0.8575 C.ar    1  UNL1        0.0000
     10 C          -1.6110   -0.0887    0.1038 C.ar    1  UNL1        0.0000
     11 SI         -0.7892    0.8801   -1.3619 Si      1  UNL1        0.0000
     12 C           0.9034    0.3400   -0.7979 C.ar    1  UNL1        0.0000
     13 C           2.2461    0.4573   -1.1342 C.ar    1  UNL1        0.0000
     14 C           2.9472   -0.2736   -0.1781 C.ar    1  UNL1        0.0000
     15 N           2.0162   -0.8226    0.6984 N.ar    1  UNL1        0.0000
     16 C           0.7634   -0.4414    0.3221 C.ar    1  UNL1        0.0000
     17 C           4.3564   -0.5061   -0.0239 C.ar    1  UNL1        0.0000
     18 S           4.9783   -1.8889    0.8190 S.2     1  UNL1        0.0000
     19 C           6.6178   -1.4513    0.5486 C.ar    1  UNL1        0.0000
     20 C           6.6278   -0.2903   -0.1408 C.ar    1  UNL1        0.0000
     21 C           7.6781    0.5292   -0.6169 C.ar    1  UNL1        0.0000
     22 C           7.2075    1.6673   -1.2790 C.ar    1  UNL1        0.0000
     23 S           5.4629    1.8442   -1.3785 S.2     1  UNL1        0.0000
     24 C           5.3938    0.2726   -0.4764 C.ar    1  UNL1        0.0000
     25 C          -2.9429   -0.2540    0.4940 C.ar    1  UNL1        0.0000
     26 C          -4.1735    0.3001   -0.1433 C.ar    1  UNL1        0.0000
     27 C          -4.2804    1.0849   -1.2371 C.2     1  UNL1        0.0000
     28 H          -6.3431    2.9604   -1.4645 H       1  UNL1        0.0000
     29 H          -6.5128    0.9163   -2.9140 H       1  UNL1        0.0000
     30 H          -7.6032    0.3926    0.1284 H       1  UNL1        0.0000
     31 H          -6.5655   -1.0671    2.0658 H       1  UNL1        0.0000
     32 H          -4.5172   -1.9607    3.0869 H       1  UNL1        0.0000
     33 H          -0.1105   -1.9559    2.5632 H       1  UNL1        0.0000
     34 H          -1.1991    0.3124   -2.6728 H       1  UNL1        0.0000
     35 H          -1.0309    2.3412   -1.2377 H       1  UNL1        0.0000
     36 H           2.6720    0.9935   -1.9717 H       1  UNL1        0.0000
     37 H           2.2550   -1.4090    1.4864 H       1  UNL1        0.0000
     38 H           7.4365   -2.0567    0.9108 H       1  UNL1        0.0000
     39 H           8.7346    0.3246   -0.4935 H       1  UNL1        0.0000
     40 H           7.8063    2.4468   -1.7302 H       1  UNL1        0.0000
     41 H          -3.5249    1.4823   -1.8856 H       1  UNL1        0.0000
@<TRIPOS>BOND
     1     1     2    1
     2     2     3    2
     3     3     4   ar
     4     4     5   ar
     5     5     6   ar
     6     6     7   ar
     7     7     8   ar
     8     8     9   ar
     9     9    10   ar
    10    10    11    1
    11    11    12    1
    12    12    13   ar
    13    13    14   ar
    14    14    15   ar
    15    15    16   ar
    16    14    17    1
    17    17    18   ar
    18    18    19   ar
    19    19    20   ar
    20    20    21   ar
    21    21    22   ar
    22    22    23   ar
    23    23    24   ar
    24    10    25   ar
    25    25    26   ar
    26    26    27    2
    27    27     1    1
    28    26     3   ar
    29    25     6   ar
    30     9    16    1
    31    24    17   ar
    32    16    12   ar
    33    24    20   ar
    34     1    28    1
    35     1    29    1
    36     2    30    1
    37     4    31    1
    38     5    32    1
    39     8    33    1
    40    11    34    1
    41    11    35    1
    42    13    36    1
    43    15    37    1
    44    19    38    1
    45    21    39    1
    46    22    40    1
    47    27    41    1
