@<TRIPOS>MOLECULE
*****
 43 49 0 0 0
SMALL
GASTEIGER

@<TRIPOS>ATOM
      1 SI         -6.3739    1.1500   -1.5554 Si      1  UNL1        0.0000
      2 C          -6.7821    0.2108   -0.0038 C.2     1  UNL1        0.0000
      3 C          -5.6674   -0.2569    0.5884 C.ar    1  UNL1        0.0000
      4 C          -5.6937   -1.1451    1.7248 C.ar    1  UNL1        0.0000
      5 C          -4.5468   -1.6859    2.1599 C.ar    1  UNL1        0.0000
      6 C          -3.2413   -1.3415    1.5656 C.ar    1  UNL1        0.0000
      7 N          -2.2103   -1.9941    2.1374 N.ar    1  UNL1        0.0000
      8 C          -0.9748   -1.6647    1.7124 C.ar    1  UNL1        0.0000
      9 C          -0.6631   -0.6611    0.7848 C.ar    1  UNL1        0.0000
     10 C          -1.7654    0.0386    0.2211 C.ar    1  UNL1        0.0000
     11 C          -1.4473    1.1396   -0.6041 C.ar    1  UNL1        0.0000
     12 C          -0.1350    1.4829   -0.9379 C.ar    1  UNL1        0.0000
     13 C           0.9409    0.7500   -0.4445 C.ar    1  UNL1        0.0000
     14 C           2.2548    1.0966   -0.8004 C.ar    1  UNL1        0.0000
     15 C           3.3227    0.3710   -0.2887 C.ar    1  UNL1        0.0000
     16 N           3.1287   -0.6667    0.5523 N.ar    1  UNL1        0.0000
     17 C           1.8513   -0.9814    0.8828 C.ar    1  UNL1        0.0000
     18 C           0.6944   -0.3245    0.4273 C.ar    1  UNL1        0.0000
     19 C           4.7326    0.6442   -0.5933 C.ar    1  UNL1        0.0000
     20 S           5.2347    1.9308   -1.6752 S.2     1  UNL1        0.0000
     21 C           6.9237    1.5984   -1.5013 C.ar    1  UNL1        0.0000
     22 C           7.0446    0.5594   -0.6587 C.ar    1  UNL1        0.0000
     23 O           8.2080   -0.0183   -0.2539 O.2     1  UNL1        0.0000
     24 C           7.7004   -0.9997    0.5780 C.ar    1  UNL1        0.0000
     25 C           6.3031   -1.0087    0.6666 C.ar    1  UNL1        0.0000
     26 C           5.8725    0.0416   -0.1671 C.ar    1  UNL1        0.0000
     27 C          -3.0977   -0.3713    0.5471 C.ar    1  UNL1        0.0000
     28 C          -4.3809    0.1137   -0.0617 C.ar    1  UNL1        0.0000
     29 C          -4.5640    0.7668   -1.2305 C.2     1  UNL1        0.0000
     30 H          -6.8735    0.4833   -2.7814 H       1  UNL1        0.0000
     31 H          -6.6615    2.6001   -1.4452 H       1  UNL1        0.0000
     32 H          -7.8034    0.0290    0.2922 H       1  UNL1        0.0000
     33 H          -6.6413   -1.4046    2.1841 H       1  UNL1        0.0000
     34 H          -4.5337   -2.3822    2.9912 H       1  UNL1        0.0000
     35 H          -0.2039   -2.2522    2.2028 H       1  UNL1        0.0000
     36 H          -2.2218    1.8016   -0.9749 H       1  UNL1        0.0000
     37 H           0.0281    2.3434   -1.5848 H       1  UNL1        0.0000
     38 H           2.4234    1.9319   -1.4722 H       1  UNL1        0.0000
     39 H           1.7980   -1.8302    1.5585 H       1  UNL1        0.0000
     40 H           7.7035    2.1541   -2.0010 H       1  UNL1        0.0000
     41 H           8.4589   -1.6183    1.0396 H       1  UNL1        0.0000
     42 H           5.7018   -1.6866    1.2557 H       1  UNL1        0.0000
     43 H          -3.8433    1.0562   -1.9736 H       1  UNL1        0.0000
@<TRIPOS>BOND
     1     1     2    1
     2     2     3    2
     3     3     4   ar
     4     4     5   ar
     5     5     6   ar
     6     6     7   ar
     7     7     8   ar
     8     8     9   ar
     9     9    10   ar
    10    10    11   ar
    11    11    12   ar
    12    12    13   ar
    13    13    14   ar
    14    14    15   ar
    15    15    16   ar
    16    16    17   ar
    17    17    18   ar
    18    15    19    1
    19    19    20   ar
    20    20    21   ar
    21    21    22   ar
    22    22    23   ar
    23    23    24   ar
    24    24    25   ar
    25    25    26   ar
    26    10    27   ar
    27    27    28   ar
    28    28    29    2
    29    29     1    1
    30    28     3   ar
    31    27     6   ar
    32    18     9   ar
    33    26    19   ar
    34    18    13   ar
    35    26    22   ar
    36     1    30    1
    37     1    31    1
    38     2    32    1
    39     4    33    1
    40     5    34    1
    41     8    35    1
    42    11    36    1
    43    12    37    1
    44    14    38    1
    45    17    39    1
    46    21    40    1
    47    24    41    1
    48    25    42    1
    49    29    43    1
