@<TRIPOS>MOLECULE
*****
 42 47 0 0 0
SMALL
GASTEIGER

@<TRIPOS>ATOM
      1 SI          2.2493   -1.7801    1.3559 Si      1  UNL1        0.0000
      2 C           1.2516   -0.8486    0.0235 C.2     1  UNL1        0.0000
      3 C           1.9765    0.0804   -0.6350 C.2     1  UNL1        0.0000
      4 C           3.3539    0.1394   -0.1693 C.ar    1  UNL1        0.0000
      5 C           3.7644   -0.7400    0.8800 C.ar    1  UNL1        0.0000
      6 C           5.0858   -0.7865    1.4331 C.ar    1  UNL1        0.0000
      7 C           6.1367    0.0545    0.9825 C.ar    1  UNL1        0.0000
      8 C           5.7102    0.9022   -0.0405 C.ar    1  UNL1        0.0000
      9 C           6.4503    1.8401   -0.7083 C.ar    1  UNL1        0.0000
     10 O           5.6635    2.4633   -1.6418 O.2     1  UNL1        0.0000
     11 C           4.4099    1.9135   -1.5648 C.ar    1  UNL1        0.0000
     12 C           4.3939    0.9500   -0.5932 C.ar    1  UNL1        0.0000
     13 C          -0.1598   -1.1416   -0.2015 C.ar    1  UNL1        0.0000
     14 C          -0.5563   -2.3413   -0.7851 C.ar    1  UNL1        0.0000
     15 C          -1.9095   -2.5955   -1.0006 C.ar    1  UNL1        0.0000
     16 C          -2.8902   -1.6561   -0.6439 C.ar    1  UNL1        0.0000
     17 C          -4.2365   -1.9486   -0.8754 C.ar    1  UNL1        0.0000
     18 C          -5.2330   -1.0381   -0.5362 C.ar    1  UNL1        0.0000
     19 C          -4.9125    0.1918    0.0437 C.ar    1  UNL1        0.0000
     20 C          -5.9428    1.0889    0.3739 C.ar    1  UNL1        0.0000
     21 C          -5.6629    2.3236    0.9528 C.ar    1  UNL1        0.0000
     22 C          -4.3468    2.6756    1.2084 C.ar    1  UNL1        0.0000
     23 C          -3.3130    1.7915    0.8844 C.ar    1  UNL1        0.0000
     24 C          -3.5562    0.5251    0.2938 C.ar    1  UNL1        0.0000
     25 C          -2.5243   -0.4182   -0.0569 C.ar    1  UNL1        0.0000
     26 C          -1.1372   -0.1957    0.1456 C.ar    1  UNL1        0.0000
     27 H           1.7839   -1.4836    2.7352 H       1  UNL1        0.0000
     28 H           2.4328   -3.2171    1.0236 H       1  UNL1        0.0000
     29 H           1.6025    0.7187   -1.4233 H       1  UNL1        0.0000
     30 H           5.3019   -1.4941    2.2341 H       1  UNL1        0.0000
     31 H           7.1359    0.0257    1.3946 H       1  UNL1        0.0000
     32 H           7.4746    2.1813   -0.6620 H       1  UNL1        0.0000
     33 H           3.6826    2.3175   -2.2540 H       1  UNL1        0.0000
     34 H           0.1778   -3.0841   -1.0878 H       1  UNL1        0.0000
     35 H          -2.1934   -3.5411   -1.4586 H       1  UNL1        0.0000
     36 H          -4.5281   -2.8950   -1.3261 H       1  UNL1        0.0000
     37 H          -6.2698   -1.3034   -0.7328 H       1  UNL1        0.0000
     38 H          -6.9816    0.8294    0.1801 H       1  UNL1        0.0000
     39 H          -6.4710    3.0058    1.2020 H       1  UNL1        0.0000
     40 H          -4.1166    3.6370    1.6600 H       1  UNL1        0.0000
     41 H          -2.3009    2.1178    1.1060 H       1  UNL1        0.0000
     42 H          -0.7954    0.7355    0.5897 H       1  UNL1        0.0000
@<TRIPOS>BOND
     1     1     2    1
     2     2     3    2
     3     3     4    1
     4     4     5   ar
     5     5     6   ar
     6     6     7   ar
     7     7     8   ar
     8     8     9   ar
     9     9    10   ar
    10    10    11   ar
    11    11    12   ar
    12     2    13    1
    13    13    14   ar
    14    14    15   ar
    15    15    16   ar
    16    16    17   ar
    17    17    18   ar
    18    18    19   ar
    19    19    20   ar
    20    20    21   ar
    21    21    22   ar
    22    22    23   ar
    23    23    24   ar
    24    24    25   ar
    25    25    26   ar
    26     5     1    1
    27    12     8   ar
    28    26    13   ar
    29    12     4   ar
    30    25    16   ar
    31    24    19   ar
    32     1    27    1
    33     1    28    1
    34     3    29    1
    35     6    30    1
    36     7    31    1
    37     9    32    1
    38    11    33    1
    39    14    34    1
    40    15    35    1
    41    17    36    1
    42    18    37    1
    43    20    38    1
    44    21    39    1
    45    22    40    1
    46    23    41    1
    47    26    42    1
