@<TRIPOS>MOLECULE
*****
 47 53 0 0 0
SMALL
GASTEIGER

@<TRIPOS>ATOM
      1 SI         -6.1235   -2.2515   -2.2567 Si      1  UNL1        0.0000
      2 C          -7.0468   -1.3356   -0.9186 C.2     1  UNL1        0.0000
      3 C          -6.2026   -0.6210   -0.1511 C.ar    1  UNL1        0.0000
      4 C          -6.6283    0.1904    0.9638 C.ar    1  UNL1        0.0000
      5 C          -5.7136    0.8693    1.6720 C.ar    1  UNL1        0.0000
      6 C          -4.2742    0.8165    1.3503 C.ar    1  UNL1        0.0000
      7 N          -3.5142    1.5637    2.1735 N.ar    1  UNL1        0.0000
      8 C          -2.1894    1.5595    1.9347 C.ar    1  UNL1        0.0000
      9 C          -1.5461    0.8499    0.9132 C.ar    1  UNL1        0.0000
     10 C          -0.1226    0.8803    0.7022 C.ar    1  UNL1        0.0000
     11 C           0.8051    1.6185    1.4801 C.ar    1  UNL1        0.0000
     12 C           2.1814    1.5988    1.2158 C.ar    1  UNL1        0.0000
     13 C           2.7011    0.8380    0.1669 C.ar    1  UNL1        0.0000
     14 C           1.7986    0.1088   -0.6158 C.ar    1  UNL1        0.0000
     15 C           0.4139    0.1263   -0.3543 C.ar    1  UNL1        0.0000
     16 C          -0.4715   -0.6001   -1.1312 C.ar    1  UNL1        0.0000
     17 N          -1.8073   -0.6352   -0.9413 N.ar    1  UNL1        0.0000
     18 C          -2.3684    0.0725    0.0627 C.ar    1  UNL1        0.0000
     19 C          -3.7606    0.0526    0.2817 C.ar    1  UNL1        0.0000
     20 C          -4.7669   -0.7123   -0.5215 C.ar    1  UNL1        0.0000
     21 C          -4.5462   -1.5123   -1.5869 C.2     1  UNL1        0.0000
     22 C           4.1303    0.8235   -0.1120 C.ar    1  UNL1        0.0000
     23 C           4.9000    1.9738   -0.4408 C.ar    1  UNL1        0.0000
     24 C           6.3127    1.9598   -0.7239 C.ar    1  UNL1        0.0000
     25 C           7.1143    0.7968   -0.7053 C.ar    1  UNL1        0.0000
     26 C           6.3501   -0.3136   -0.3752 C.ar    1  UNL1        0.0000
     27 C           6.8150   -1.5971   -0.2523 C.ar    1  UNL1        0.0000
     28 N           5.7377   -2.3795    0.1061 N.ar    1  UNL1        0.0000
     29 C           4.5987   -1.6074    0.2108 C.ar    1  UNL1        0.0000
     30 C           4.9492   -0.3139   -0.0956 C.ar    1  UNL1        0.0000
     31 H          -6.1904   -3.7225   -2.0794 H       1  UNL1        0.0000
     32 H          -6.4616   -1.7557   -3.6130 H       1  UNL1        0.0000
     33 H          -8.1184   -1.4082   -0.8231 H       1  UNL1        0.0000
     34 H          -7.6815    0.2432    1.2171 H       1  UNL1        0.0000
     35 H          -6.0014    1.4878    2.5149 H       1  UNL1        0.0000
     36 H          -1.6384    2.1812    2.6340 H       1  UNL1        0.0000
     37 H           0.4773    2.2294    2.3172 H       1  UNL1        0.0000
     38 H           2.8491    2.1792    1.8507 H       1  UNL1        0.0000
     39 H           2.1821   -0.4796   -1.4492 H       1  UNL1        0.0000
     40 H          -0.1263   -1.2043   -1.9669 H       1  UNL1        0.0000
     41 H          -3.6059   -1.7484   -2.0566 H       1  UNL1        0.0000
     42 H           4.3917    2.9379   -0.4959 H       1  UNL1        0.0000
     43 H           6.7898    2.9094   -0.9688 H       1  UNL1        0.0000
     44 H           8.1737    0.7964   -0.9161 H       1  UNL1        0.0000
     45 H           7.7975   -2.0319   -0.3744 H       1  UNL1        0.0000
     46 H           5.7780   -3.3756    0.2786 H       1  UNL1        0.0000
     47 H           3.6589   -2.0579    0.4998 H       1  UNL1        0.0000
@<TRIPOS>BOND
     1     1     2    1
     2     2     3    2
     3     3     4   ar
     4     4     5   ar
     5     5     6   ar
     6     6     7   ar
     7     7     8   ar
     8     8     9   ar
     9     9    10   ar
    10    10    11   ar
    11    11    12   ar
    12    12    13   ar
    13    13    14   ar
    14    14    15   ar
    15    15    16   ar
    16    16    17   ar
    17    17    18   ar
    18    18    19   ar
    19    19    20   ar
    20    20    21    2
    21    13    22    1
    22    22    23   ar
    23    23    24   ar
    24    24    25   ar
    25    25    26   ar
    26    26    27   ar
    27    27    28   ar
    28    28    29   ar
    29    29    30   ar
    30    21     1    1
    31    30    22   ar
    32    20     3   ar
    33    30    26   ar
    34    19     6   ar
    35    18     9   ar
    36    15    10   ar
    37     1    31    1
    38     1    32    1
    39     2    33    1
    40     4    34    1
    41     5    35    1
    42     8    36    1
    43    11    37    1
    44    12    38    1
    45    14    39    1
    46    16    40    1
    47    21    41    1
    48    23    42    1
    49    24    43    1
    50    25    44    1
    51    27    45    1
    52    28    46    1
    53    29    47    1
