@<TRIPOS>MOLECULE
*****
 33 37 0 0 0
SMALL
GASTEIGER

@<TRIPOS>ATOM
      1 SI         -5.4160   -0.6730    1.8099 Si      1  UNL1        0.0000
      2 C          -5.4797    0.0201    0.0688 C.2     1  UNL1        0.0000
      3 C          -4.2379    0.2034   -0.4191 C.ar    1  UNL1        0.0000
      4 C          -3.9388    0.7299   -1.7494 C.ar    1  UNL1        0.0000
      5 C          -2.6592    0.8788   -2.1515 C.ar    1  UNL1        0.0000
      6 C          -1.6233    0.5077   -1.2410 C.ar    1  UNL1        0.0000
      7 O          -0.2777    0.5869   -1.4695 O.2     1  UNL1        0.0000
      8 C           0.3857    0.1370   -0.3528 C.ar    1  UNL1        0.0000
      9 C          -0.5460   -0.2358    0.6048 C.ar    1  UNL1        0.0000
     10 C          -1.8124    0.0001    0.0391 C.ar    1  UNL1        0.0000
     11 C          -3.1432   -0.1787    0.5176 C.ar    1  UNL1        0.0000
     12 C          -3.5466   -0.6500    1.7115 C.2     1  UNL1        0.0000
     13 C           1.8170    0.0999   -0.2906 C.ar    1  UNL1        0.0000
     14 C           2.7350    0.4808   -1.2682 C.ar    1  UNL1        0.0000
     15 C           3.9894    0.2521   -0.7206 C.ar    1  UNL1        0.0000
     16 SI          5.8133    0.3765   -1.0730 Si      1  UNL1        0.0000
     17 C           6.1068   -0.3424    0.7276 C.2     1  UNL1        0.0000
     18 C           4.9439   -0.5889    1.3728 C.2     1  UNL1        0.0000
     19 C           3.8507   -0.2512    0.5477 C.ar    1  UNL1        0.0000
     20 N           2.5219   -0.3475    0.8188 N.ar    1  UNL1        0.0000
     21 H          -5.9389    0.2815    2.8165 H       1  UNL1        0.0000
     22 H          -5.9590   -2.0502    1.8891 H       1  UNL1        0.0000
     23 H          -6.4172    0.2239   -0.4233 H       1  UNL1        0.0000
     24 H          -4.7607    0.9976   -2.4044 H       1  UNL1        0.0000
     25 H          -2.3982    1.2653   -3.1288 H       1  UNL1        0.0000
     26 H          -0.3340   -0.6285    1.5874 H       1  UNL1        0.0000
     27 H          -2.9300   -0.9812    2.5307 H       1  UNL1        0.0000
     28 H           2.4824    0.8718   -2.2456 H       1  UNL1        0.0000
     29 H           6.3324   -0.5800   -2.0834 H       1  UNL1        0.0000
     30 H           6.3526    1.7577   -1.1534 H       1  UNL1        0.0000
     31 H           7.1144   -0.4911    1.0795 H       1  UNL1        0.0000
     32 H           4.8622   -0.9871    2.3754 H       1  UNL1        0.0000
     33 H           2.1115   -0.6855    1.6772 H       1  UNL1        0.0000
@<TRIPOS>BOND
     1     1     2    1
     2     2     3    2
     3     3     4   ar
     4     4     5   ar
     5     5     6   ar
     6     6     7   ar
     7     7     8   ar
     8     8     9   ar
     9     9    10   ar
    10    10    11   ar
    11    11    12    2
    12     8    13    1
    13    13    14   ar
    14    14    15   ar
    15    15    16    1
    16    16    17    1
    17    17    18    2
    18    18    19    1
    19    19    20   ar
    20    12     1    1
    21    20    13   ar
    22    11     3   ar
    23    19    15   ar
    24    10     6   ar
    25     1    21    1
    26     1    22    1
    27     2    23    1
    28     4    24    1
    29     5    25    1
    30     9    26    1
    31    12    27    1
    32    14    28    1
    33    16    29    1
    34    16    30    1
    35    17    31    1
    36    18    32    1
    37    20    33    1
