@<TRIPOS>MOLECULE
*****
 48 55 0 0 0
SMALL
GASTEIGER

@<TRIPOS>ATOM
      1 SI         -7.2093    0.0068   -1.0711 Si      1  UNL1        0.0000
      2 C          -7.1114    0.0611    0.7905 C.2     1  UNL1        0.0000
      3 C          -5.8304    0.0362    1.2059 C.ar    1  UNL1        0.0000
      4 C          -5.4437   -0.0420    2.6085 C.ar    1  UNL1        0.0000
      5 C          -4.1465   -0.1661    2.9446 C.ar    1  UNL1        0.0000
      6 C          -3.1743   -0.1595    1.8984 C.ar    1  UNL1        0.0000
      7 O          -1.8229   -0.2874    2.1009 O.2     1  UNL1        0.0000
      8 C          -1.2023   -0.1572    0.8895 C.ar    1  UNL1        0.0000
      9 C          -2.1728    0.0673   -0.0738 C.ar    1  UNL1        0.0000
     10 C          -1.6732    0.3371   -1.3849 C.ar    1  UNL1        0.0000
     11 C          -2.2935    0.7380   -2.5299 C.ar    1  UNL1        0.0000
     12 N          -1.2922    0.8589   -3.4735 N.ar    1  UNL1        0.0000
     13 C          -0.0637    0.5799   -2.9058 C.ar    1  UNL1        0.0000
     14 C          -0.2729    0.2699   -1.5797 C.ar    1  UNL1        0.0000
     15 C           0.7371   -0.0155   -0.6299 C.ar    1  UNL1        0.0000
     16 C           2.1316   -0.0860   -0.8220 C.ar    1  UNL1        0.0000
     17 C           2.9475   -0.3520    0.2771 C.ar    1  UNL1        0.0000
     18 N           2.4452   -0.5460    1.5256 N.ar    1  UNL1        0.0000
     19 C           1.1009   -0.4761    1.6944 C.ar    1  UNL1        0.0000
     20 C           0.2025   -0.2190    0.6625 C.ar    1  UNL1        0.0000
     21 C           4.3979   -0.4610    0.1414 C.ar    1  UNL1        0.0000
     22 C           5.0428   -1.2731   -0.8356 C.ar    1  UNL1        0.0000
     23 C           6.4625   -1.3899   -0.9933 C.ar    1  UNL1        0.0000
     24 C           7.3989   -0.7049   -0.1944 C.ar    1  UNL1        0.0000
     25 C           6.7756    0.0936    0.7634 C.ar    1  UNL1        0.0000
     26 C           7.4908    0.8591    1.6510 C.ar    1  UNL1        0.0000
     27 S           6.4488    1.7413    2.6928 S.2     1  UNL1        0.0000
     28 C           5.0388    1.0931    1.9524 C.ar    1  UNL1        0.0000
     29 C           5.3452    0.2164    0.9359 C.ar    1  UNL1        0.0000
     30 C          -3.4338   -0.0187    0.5229 C.ar    1  UNL1        0.0000
     31 C          -4.8076    0.0157    0.1126 C.ar    1  UNL1        0.0000
     32 C          -5.3408   -0.0678   -1.1198 C.2     1  UNL1        0.0000
     33 H          -7.8362   -1.2397   -1.5720 H       1  UNL1        0.0000
     34 H          -7.7360    1.2651   -1.6519 H       1  UNL1        0.0000
     35 H          -7.9992    0.0551    1.4027 H       1  UNL1        0.0000
     36 H          -6.2156   -0.0334    3.3704 H       1  UNL1        0.0000
     37 H          -3.8218   -0.2498    3.9746 H       1  UNL1        0.0000
     38 H          -3.3081    0.9882   -2.7909 H       1  UNL1        0.0000
     39 H          -1.4336    1.1467   -4.4333 H       1  UNL1        0.0000
     40 H           0.8347    0.6558   -3.5029 H       1  UNL1        0.0000
     41 H           2.5628    0.0768   -1.8031 H       1  UNL1        0.0000
     42 H           0.7612   -0.6412    2.7137 H       1  UNL1        0.0000
     43 H           4.4206   -1.8678   -1.5070 H       1  UNL1        0.0000
     44 H           6.8365   -2.0523   -1.7747 H       1  UNL1        0.0000
     45 H           8.4679   -0.8048   -0.3266 H       1  UNL1        0.0000
     46 H           8.5626    0.9585    1.7522 H       1  UNL1        0.0000
     47 H           4.0663    1.3928    2.3185 H       1  UNL1        0.0000
     48 H          -4.8365   -0.2022   -2.0568 H       1  UNL1        0.0000
@<TRIPOS>BOND
     1     1     2    1
     2     2     3    2
     3     3     4   ar
     4     4     5   ar
     5     5     6   ar
     6     6     7   ar
     7     7     8   ar
     8     8     9   ar
     9     9    10   ar
    10    10    11   ar
    11    11    12   ar
    12    12    13   ar
    13    13    14   ar
    14    14    15   ar
    15    15    16   ar
    16    16    17   ar
    17    17    18   ar
    18    18    19   ar
    19    19    20   ar
    20    17    21    1
    21    21    22   ar
    22    22    23   ar
    23    23    24   ar
    24    24    25   ar
    25    25    26   ar
    26    26    27   ar
    27    27    28   ar
    28    28    29   ar
    29     9    30   ar
    30    30    31   ar
    31    31    32    2
    32    32     1    1
    33    31     3   ar
    34    30     6   ar
    35    20     8   ar
    36    29    21   ar
    37    14    10   ar
    38    20    15   ar
    39    29    25   ar
    40     1    33    1
    41     1    34    1
    42     2    35    1
    43     4    36    1
    44     5    37    1
    45    11    38    1
    46    12    39    1
    47    13    40    1
    48    16    41    1
    49    19    42    1
    50    22    43    1
    51    23    44    1
    52    24    45    1
    53    26    46    1
    54    28    47    1
    55    32    48    1
