@<TRIPOS>MOLECULE
*****
 45 51 0 0 0
SMALL
GASTEIGER

@<TRIPOS>ATOM
      1 SI         -6.5010    0.6098   -2.3079 Si      1  UNL1        0.0000
      2 C          -6.7941    0.2511   -0.5013 C.2     1  UNL1        0.0000
      3 C          -5.6287    0.0843    0.1528 C.ar    1  UNL1        0.0000
      4 C          -5.5454   -0.3058    1.5541 C.ar    1  UNL1        0.0000
      5 C          -4.3471   -0.5445    2.1181 C.ar    1  UNL1        0.0000
      6 C          -3.1766   -0.3524    1.3228 C.ar    1  UNL1        0.0000
      7 O          -1.8972   -0.5639    1.7713 O.2     1  UNL1        0.0000
      8 C          -1.0335   -0.2093    0.7707 C.ar    1  UNL1        0.0000
      9 C          -1.7846    0.2366   -0.3055 C.ar    1  UNL1        0.0000
     10 C          -1.0255    0.7424   -1.3999 C.ar    1  UNL1        0.0000
     11 C          -1.3712    1.3691   -2.5558 C.ar    1  UNL1        0.0000
     12 O          -0.2206    1.6609   -3.2445 O.2     1  UNL1        0.0000
     13 C           0.8351    1.2343   -2.4832 C.ar    1  UNL1        0.0000
     14 C           0.3828    0.6745   -1.3107 C.ar    1  UNL1        0.0000
     15 C           1.1804    0.1774   -0.2552 C.ar    1  UNL1        0.0000
     16 C           2.5922    0.1131   -0.1837 C.ar    1  UNL1        0.0000
     17 C           3.2286   -0.3908    0.9637 C.ar    1  UNL1        0.0000
     18 C           2.4289   -0.8251    2.0386 C.ar    1  UNL1        0.0000
     19 C           1.0307   -0.7679    1.9846 C.ar    1  UNL1        0.0000
     20 C           0.3921   -0.2701    0.8387 C.ar    1  UNL1        0.0000
     21 C           4.6970   -0.4598    1.0412 C.ar    1  UNL1        0.0000
     22 C           5.4420   -1.1373    0.0616 C.ar    1  UNL1        0.0000
     23 C           6.8361   -1.2028    0.1341 C.ar    1  UNL1        0.0000
     24 C           7.5089   -0.5900    1.1882 C.ar    1  UNL1        0.0000
     25 C           6.7894    0.0869    2.1696 C.ar    1  UNL1        0.0000
     26 C           5.3952    0.1504    2.0964 C.ar    1  UNL1        0.0000
     27 C          -3.1421    0.0810   -0.0148 C.ar    1  UNL1        0.0000
     28 C          -4.3987    0.2587   -0.6832 C.ar    1  UNL1        0.0000
     29 C          -4.6604    0.4737   -1.9853 C.2     1  UNL1        0.0000
     30 H          -6.9981   -0.4727   -3.1899 H       1  UNL1        0.0000
     31 H          -6.9027    1.9851   -2.6877 H       1  UNL1        0.0000
     32 H          -7.7905    0.1512   -0.1010 H       1  UNL1        0.0000
     33 H          -6.4606   -0.4307    2.1227 H       1  UNL1        0.0000
     34 H          -4.2458   -0.8561    3.1505 H       1  UNL1        0.0000
     35 H          -2.2760    1.7053   -3.0327 H       1  UNL1        0.0000
     36 H           1.8103    1.4226   -2.9095 H       1  UNL1        0.0000
     37 H           3.1926    0.4692   -1.0172 H       1  UNL1        0.0000
     38 H           2.8985   -1.2283    2.9346 H       1  UNL1        0.0000
     39 H           0.4488   -1.1171    2.8348 H       1  UNL1        0.0000
     40 H           4.9353   -1.6331   -0.7640 H       1  UNL1        0.0000
     41 H           7.3943   -1.7351   -0.6316 H       1  UNL1        0.0000
     42 H           8.5931   -0.6404    1.2451 H       1  UNL1        0.0000
     43 H           7.3113    0.5685    2.9923 H       1  UNL1        0.0000
     44 H           4.8529    0.6935    2.8679 H       1  UNL1        0.0000
     45 H          -3.9764    0.5339   -2.8086 H       1  UNL1        0.0000
@<TRIPOS>BOND
     1     1     2    1
     2     2     3    2
     3     3     4   ar
     4     4     5   ar
     5     5     6   ar
     6     6     7   ar
     7     7     8   ar
     8     8     9   ar
     9     9    10   ar
    10    10    11   ar
    11    11    12   ar
    12    12    13   ar
    13    13    14   ar
    14    14    15   ar
    15    15    16   ar
    16    16    17   ar
    17    17    18   ar
    18    18    19   ar
    19    19    20   ar
    20    17    21    1
    21    21    22   ar
    22    22    23   ar
    23    23    24   ar
    24    24    25   ar
    25    25    26   ar
    26     9    27   ar
    27    27    28   ar
    28    28    29    2
    29    29     1    1
    30    28     3   ar
    31    27     6   ar
    32    20     8   ar
    33    26    21   ar
    34    14    10   ar
    35    20    15   ar
    36     1    30    1
    37     1    31    1
    38     2    32    1
    39     4    33    1
    40     5    34    1
    41    11    35    1
    42    13    36    1
    43    16    37    1
    44    18    38    1
    45    19    39    1
    46    22    40    1
    47    23    41    1
    48    24    42    1
    49    25    43    1
    50    26    44    1
    51    29    45    1
