@<TRIPOS>MOLECULE
*****
 42 48 0 0 0
SMALL
GASTEIGER

@<TRIPOS>ATOM
      1 SI         -6.4112   -0.9058    0.2603 Si      1  UNL1        0.0000
      2 C          -6.2749    0.9258   -0.0620 C.2     1  UNL1        0.0000
      3 C          -4.9858    1.3074   -0.1411 C.ar    1  UNL1        0.0000
      4 C          -4.5689    2.6960   -0.2858 C.ar    1  UNL1        0.0000
      5 C          -3.2614    3.0137   -0.2650 C.ar    1  UNL1        0.0000
      6 C          -2.3110    1.9537   -0.1526 C.ar    1  UNL1        0.0000
      7 O          -0.9519    2.1383   -0.1149 O.2     1  UNL1        0.0000
      8 C          -0.3578    0.9060   -0.0804 C.ar    1  UNL1        0.0000
      9 C          -1.3582   -0.0528   -0.1073 C.ar    1  UNL1        0.0000
     10 C          -0.8981   -1.3990   -0.1795 C.ar    1  UNL1        0.0000
     11 C          -1.5366   -2.5878   -0.3446 C.ar    1  UNL1        0.0000
     12 O          -0.5908   -3.5819   -0.3636 O.2     1  UNL1        0.0000
     13 C           0.6362   -2.9861   -0.2397 C.ar    1  UNL1        0.0000
     14 C           0.4970   -1.6206   -0.1454 C.ar    1  UNL1        0.0000
     15 C           1.5430   -0.6731   -0.0641 C.ar    1  UNL1        0.0000
     16 C           2.9383   -0.9130   -0.0272 C.ar    1  UNL1        0.0000
     17 C           3.8449    0.1576    0.0293 C.ar    1  UNL1        0.0000
     18 C           3.3357    1.4694    0.0440 C.ar    1  UNL1        0.0000
     19 C           1.9587    1.7245    0.0060 C.ar    1  UNL1        0.0000
     20 C           1.0486    0.6585   -0.0450 C.ar    1  UNL1        0.0000
     21 C           5.2854   -0.0932    0.0691 C.ar    1  UNL1        0.0000
     22 C           6.0726   -1.2304    0.0692 C.ar    1  UNL1        0.0000
     23 C           7.4208   -0.7981    0.1208 C.ar    1  UNL1        0.0000
     24 C           7.3788    0.5742    0.1492 C.ar    1  UNL1        0.0000
     25 O           6.0943    1.0098    0.1184 O.2     1  UNL1        0.0000
     26 C          -2.6030    0.5802   -0.0711 C.ar    1  UNL1        0.0000
     27 C          -3.9848    0.2030    0.0028 C.ar    1  UNL1        0.0000
     28 C          -4.5395   -0.9924    0.2745 C.2     1  UNL1        0.0000
     29 H          -6.9971   -1.2076    1.5879 H       1  UNL1        0.0000
     30 H          -6.9966   -1.6437   -0.8843 H       1  UNL1        0.0000
     31 H          -7.1491    1.5551   -0.1165 H       1  UNL1        0.0000
     32 H          -5.3255    3.4677   -0.3781 H       1  UNL1        0.0000
     33 H          -2.9133    4.0360   -0.3491 H       1  UNL1        0.0000
     34 H          -2.5480   -2.9289   -0.4868 H       1  UNL1        0.0000
     35 H           1.4760   -3.6661   -0.2572 H       1  UNL1        0.0000
     36 H           3.3020   -1.9358   -0.0452 H       1  UNL1        0.0000
     37 H           4.0162    2.3186    0.0856 H       1  UNL1        0.0000
     38 H           1.6068    2.7538    0.0195 H       1  UNL1        0.0000
     39 H           5.7218   -2.2517    0.0363 H       1  UNL1        0.0000
     40 H           8.3112   -1.4105    0.1355 H       1  UNL1        0.0000
     41 H           8.1331    1.3475    0.1895 H       1  UNL1        0.0000
     42 H          -4.0579   -1.9182    0.5191 H       1  UNL1        0.0000
@<TRIPOS>BOND
     1     1     2    1
     2     2     3    2
     3     3     4   ar
     4     4     5   ar
     5     5     6   ar
     6     6     7   ar
     7     7     8   ar
     8     8     9   ar
     9     9    10   ar
    10    10    11   ar
    11    11    12   ar
    12    12    13   ar
    13    13    14   ar
    14    14    15   ar
    15    15    16   ar
    16    16    17   ar
    17    17    18   ar
    18    18    19   ar
    19    19    20   ar
    20    17    21    1
    21    21    22   ar
    22    22    23   ar
    23    23    24   ar
    24    24    25   ar
    25     9    26   ar
    26    26    27   ar
    27    27    28    2
    28    28     1    1
    29    27     3   ar
    30    26     6   ar
    31    20     8   ar
    32    25    21   ar
    33    14    10   ar
    34    20    15   ar
    35     1    29    1
    36     1    30    1
    37     2    31    1
    38     4    32    1
    39     5    33    1
    40    11    34    1
    41    13    35    1
    42    16    36    1
    43    18    37    1
    44    19    38    1
    45    22    39    1
    46    23    40    1
    47    24    41    1
    48    28    42    1
