@<TRIPOS>MOLECULE
*****
 40 45 0 0 0
SMALL
GASTEIGER

@<TRIPOS>ATOM
      1 SI         -6.6418   -0.6891    1.6487 Si      1  UNL1        0.0000
      2 C          -6.7286   -0.0947   -0.1232 C.2     1  UNL1        0.0000
      3 C          -5.4950    0.0836   -0.6330 C.ar    1  UNL1        0.0000
      4 C          -5.2296    0.5418   -1.9934 C.ar    1  UNL1        0.0000
      5 C          -3.9614    0.6937   -2.4241 C.ar    1  UNL1        0.0000
      6 C          -2.9029    0.3944   -1.5141 C.ar    1  UNL1        0.0000
      7 O          -1.5675    0.4940   -1.7880 O.2     1  UNL1        0.0000
      8 C          -0.8781    0.1221   -0.6673 C.ar    1  UNL1        0.0000
      9 C          -1.7612   -0.2252    0.3523 C.ar    1  UNL1        0.0000
     10 C          -1.2182   -0.6313    1.5721 C.ar    1  UNL1        0.0000
     11 N           0.1291   -0.6820    1.7470 N.ar    1  UNL1        0.0000
     12 C           0.9537   -0.3376    0.7342 C.ar    1  UNL1        0.0000
     13 C           2.3329   -0.3811    0.8821 C.ar    1  UNL1        0.0000
     14 C           3.2061   -0.0257   -0.1637 C.ar    1  UNL1        0.0000
     15 C           2.6155    0.3770   -1.3642 C.ar    1  UNL1        0.0000
     16 N           1.2832    0.4407   -1.5799 N.ar    1  UNL1        0.0000
     17 C           0.5076    0.0827   -0.5260 C.ar    1  UNL1        0.0000
     18 C           4.6664   -0.0754    0.0012 C.ar    1  UNL1        0.0000
     19 C           5.4790   -0.7493   -0.9267 C.ar    1  UNL1        0.0000
     20 C           6.8671   -0.7954   -0.7701 C.ar    1  UNL1        0.0000
     21 C           7.4676   -0.1676    0.3177 C.ar    1  UNL1        0.0000
     22 C           6.6818    0.5051    1.2494 C.ar    1  UNL1        0.0000
     23 C           5.2937    0.5497    1.0924 C.ar    1  UNL1        0.0000
     24 C          -3.0532   -0.0479   -0.1988 C.ar    1  UNL1        0.0000
     25 C          -4.3790   -0.2261    0.3088 C.ar    1  UNL1        0.0000
     26 C          -4.7704   -0.6380    1.5290 C.2     1  UNL1        0.0000
     27 H          -7.1676    0.3104    2.6085 H       1  UNL1        0.0000
     28 H          -7.1538   -2.0706    1.8092 H       1  UNL1        0.0000
     29 H          -7.6733    0.0659   -0.6180 H       1  UNL1        0.0000
     30 H          -6.0669    0.7569   -2.6486 H       1  UNL1        0.0000
     31 H          -3.7249    1.0314   -3.4259 H       1  UNL1        0.0000
     32 H          -1.8163   -0.9220    2.4273 H       1  UNL1        0.0000
     33 H           2.7350   -0.7135    1.8369 H       1  UNL1        0.0000
     34 H           3.2219    0.6804   -2.2148 H       1  UNL1        0.0000
     35 H           5.0346   -1.2605   -1.7788 H       1  UNL1        0.0000
     36 H           7.4776   -1.3252   -1.4970 H       1  UNL1        0.0000
     37 H           8.5471   -0.2032    0.4398 H       1  UNL1        0.0000
     38 H           7.1475    0.9981    2.0990 H       1  UNL1        0.0000
     39 H           4.7031    1.0913    1.8292 H       1  UNL1        0.0000
     40 H          -4.1608   -0.9171    2.3705 H       1  UNL1        0.0000
@<TRIPOS>BOND
     1     1     2    1
     2     2     3    2
     3     3     4   ar
     4     4     5   ar
     5     5     6   ar
     6     6     7   ar
     7     7     8   ar
     8     8     9   ar
     9     9    10   ar
    10    10    11   ar
    11    11    12   ar
    12    12    13   ar
    13    13    14   ar
    14    14    15   ar
    15    15    16   ar
    16    16    17   ar
    17    14    18    1
    18    18    19   ar
    19    19    20   ar
    20    20    21   ar
    21    21    22   ar
    22    22    23   ar
    23     9    24   ar
    24    24    25   ar
    25    25    26    2
    26    26     1    1
    27    25     3   ar
    28    24     6   ar
    29    17     8   ar
    30    23    18   ar
    31    17    12   ar
    32     1    27    1
    33     1    28    1
    34     2    29    1
    35     4    30    1
    36     5    31    1
    37    10    32    1
    38    13    33    1
    39    15    34    1
    40    19    35    1
    41    20    36    1
    42    21    37    1
    43    22    38    1
    44    23    39    1
    45    26    40    1
