@<TRIPOS>MOLECULE
*****
 40 46 0 0 0
SMALL
GASTEIGER

@<TRIPOS>ATOM
      1 SI         -6.5074    0.1630    1.3658 Si      1  UNL1        0.0000
      2 C          -6.3368    0.1777   -0.4944 C.2     1  UNL1        0.0000
      3 C          -5.0407    0.1497   -0.8598 C.ar    1  UNL1        0.0000
      4 C          -4.5975    0.1530   -2.2475 C.ar    1  UNL1        0.0000
      5 C          -3.2841    0.1239   -2.5387 C.ar    1  UNL1        0.0000
      6 C          -2.3531    0.0901   -1.4563 C.ar    1  UNL1        0.0000
      7 O          -0.9860    0.0584   -1.6131 O.2     1  UNL1        0.0000
      8 C          -0.4513    0.0326   -0.3716 C.ar    1  UNL1        0.0000
      9 C           1.0250   -0.0073    0.0138 C.ar    1  UNL1        0.0000
     10 N           2.1566   -0.0269   -0.7421 N.ar    1  UNL1        0.0000
     11 C           3.2712   -0.0625    0.0926 C.ar    1  UNL1        0.0000
     12 C           2.7944   -0.0648    1.4090 C.ar    1  UNL1        0.0000
     13 C           1.4065   -0.0301    1.3193 C.ar    1  UNL1        0.0000
     14 C           0.3831   -0.0156    2.3082 C.ar    1  UNL1        0.0000
     15 N           0.6714   -0.0361    3.6051 N.ar    1  UNL1        0.0000
     16 S          -0.8493   -0.0067    4.3330 S.2     1  UNL1        0.0000
     17 N          -1.8534    0.0318    2.9779 N.ar    1  UNL1        0.0000
     18 C          -1.0111    0.0221    1.9513 C.ar    1  UNL1        0.0000
     19 C          -1.4411    0.0468    0.5807 C.ar    1  UNL1        0.0000
     20 C          -2.6730    0.0838   -0.0821 C.ar    1  UNL1        0.0000
     21 C          -4.0631    0.1142    0.2734 C.ar    1  UNL1        0.0000
     22 C          -4.6446    0.1161    1.4866 C.2     1  UNL1        0.0000
     23 C           4.6558   -0.0909   -0.3885 C.ar    1  UNL1        0.0000
     24 C           5.0053   -0.0850   -1.7353 C.ar    1  UNL1        0.0000
     25 C           6.3567   -0.1140   -2.0777 C.ar    1  UNL1        0.0000
     26 C           7.3151   -0.1479   -1.0732 C.ar    1  UNL1        0.0000
     27 C           6.8804   -0.1514    0.2400 C.ar    1  UNL1        0.0000
     28 N           5.5793   -0.1238    0.6003 N.ar    1  UNL1        0.0000
     29 H          -7.0847    1.4268    1.8832 H       1  UNL1        0.0000
     30 H          -7.1462   -1.0814    1.8578 H       1  UNL1        0.0000
     31 H          -7.2011    0.2055   -1.1385 H       1  UNL1        0.0000
     32 H          -5.3406    0.1793   -3.0373 H       1  UNL1        0.0000
     33 H          -2.9192    0.1255   -3.5585 H       1  UNL1        0.0000
     34 H           2.1712   -0.0168   -1.7520 H       1  UNL1        0.0000
     35 H           3.4105   -0.0889    2.2995 H       1  UNL1        0.0000
     36 H          -4.1786    0.0949    2.4542 H       1  UNL1        0.0000
     37 H           4.2627   -0.0586   -2.5223 H       1  UNL1        0.0000
     38 H           6.6578   -0.1101   -3.1216 H       1  UNL1        0.0000
     39 H           8.3735   -0.1710   -1.3063 H       1  UNL1        0.0000
     40 H           7.5867   -0.1773    1.0648 H       1  UNL1        0.0000
@<TRIPOS>BOND
     1     1     2    1
     2     2     3    2
     3     3     4   ar
     4     4     5   ar
     5     5     6   ar
     6     6     7   ar
     7     7     8   ar
     8     8     9   ar
     9     9    10   ar
    10    10    11   ar
    11    11    12   ar
    12    12    13   ar
    13    13    14   ar
    14    14    15   ar
    15    15    16   ar
    16    16    17   ar
    17    17    18   ar
    18    18    19   ar
    19    19    20   ar
    20    20    21   ar
    21    21    22    2
    22    11    23    1
    23    23    24   ar
    24    24    25   ar
    25    25    26   ar
    26    26    27   ar
    27    27    28   ar
    28    22     1    1
    29    28    23   ar
    30    21     3   ar
    31    20     6   ar
    32    19     8   ar
    33    13     9   ar
    34    18    14   ar
    35     1    29    1
    36     1    30    1
    37     2    31    1
    38     4    32    1
    39     5    33    1
    40    10    34    1
    41    12    35    1
    42    22    36    1
    43    24    37    1
    44    25    38    1
    45    26    39    1
    46    27    40    1
