@<TRIPOS>MOLECULE
*****
 45 51 0 0 0
SMALL
GASTEIGER

@<TRIPOS>ATOM
      1 SI         -6.2418   -0.3468   -1.2483 Si      1  UNL1        0.0000
      2 C          -6.2136    0.9081    0.1325 C.2     1  UNL1        0.0000
      3 C          -4.9552    1.1234    0.5613 C.ar    1  UNL1        0.0000
      4 C          -4.6031    2.1526    1.5307 C.ar    1  UNL1        0.0000
      5 C          -3.3094    2.4025    1.8054 C.ar    1  UNL1        0.0000
      6 C          -2.3190    1.5863    1.1809 C.ar    1  UNL1        0.0000
      7 O          -0.9743    1.7520    1.3232 O.2     1  UNL1        0.0000
      8 C          -0.3599    0.7503    0.6446 C.ar    1  UNL1        0.0000
      9 C           1.0064    0.5956    0.5141 C.ar    1  UNL1        0.0000
     10 SI          2.3094    1.7201    1.1464 Si      1  UNL1        0.0000
     11 C           3.5807    0.5515    0.3560 C.2     1  UNL1        0.0000
     12 C           2.9981   -0.5055   -0.2498 C.2     1  UNL1        0.0000
     13 C           1.5139   -0.5193   -0.1815 C.ar    1  UNL1        0.0000
     14 C           0.6448   -1.5090   -0.6778 C.ar    1  UNL1        0.0000
     15 C           1.1053   -2.6823   -1.3169 C.ar    1  UNL1        0.0000
     16 C           0.2271   -3.6866   -1.7263 C.ar    1  UNL1        0.0000
     17 C          -1.1322   -3.5554   -1.4859 C.ar    1  UNL1        0.0000
     18 C          -1.6208   -2.4024   -0.8711 C.ar    1  UNL1        0.0000
     19 C          -0.7659   -1.3422   -0.5024 C.ar    1  UNL1        0.0000
     20 C          -1.2865   -0.1391    0.0939 C.ar    1  UNL1        0.0000
     21 C          -2.5475    0.5056    0.3207 C.ar    1  UNL1        0.0000
     22 C          -3.9047    0.2907   -0.1047 C.ar    1  UNL1        0.0000
     23 C          -4.3782   -0.4592   -1.1181 C.2     1  UNL1        0.0000
     24 C           4.9728    0.7783    0.4373 C.ar    1  UNL1        0.0000
     25 C           5.8020    1.3240    1.4014 C.ar    1  UNL1        0.0000
     26 C           7.1280    1.3037    0.9041 C.ar    1  UNL1        0.0000
     27 C           7.0816    0.7555   -0.3558 C.ar    1  UNL1        0.0000
     28 N           5.7759    0.4426   -0.6310 N.ar    1  UNL1        0.0000
     29 H          -6.9079   -1.6111   -0.8538 H       1  UNL1        0.0000
     30 H          -6.6836    0.2372   -2.5370 H       1  UNL1        0.0000
     31 H          -7.1105    1.4152    0.4512 H       1  UNL1        0.0000
     32 H          -5.3916    2.7405    1.9880 H       1  UNL1        0.0000
     33 H          -3.0041    3.1803    2.4946 H       1  UNL1        0.0000
     34 H           2.3141    3.0566    0.4938 H       1  UNL1        0.0000
     35 H           2.4280    1.7392    2.6292 H       1  UNL1        0.0000
     36 H           3.5415   -1.3053   -0.7312 H       1  UNL1        0.0000
     37 H           2.1657   -2.8447   -1.4886 H       1  UNL1        0.0000
     38 H           0.6124   -4.5837   -2.2042 H       1  UNL1        0.0000
     39 H          -1.8147   -4.3554   -1.7605 H       1  UNL1        0.0000
     40 H          -2.6764   -2.3719   -0.6300 H       1  UNL1        0.0000
     41 H          -3.8256   -1.0442   -1.8318 H       1  UNL1        0.0000
     42 H           5.4930    1.6916    2.3717 H       1  UNL1        0.0000
     43 H           8.0175    1.6537    1.4114 H       1  UNL1        0.0000
     44 H           7.8609    0.5632   -1.0806 H       1  UNL1        0.0000
     45 H           5.4476    0.0438   -1.5001 H       1  UNL1        0.0000
@<TRIPOS>BOND
     1     1     2    1
     2     2     3    2
     3     3     4   ar
     4     4     5   ar
     5     5     6   ar
     6     6     7   ar
     7     7     8   ar
     8     8     9   ar
     9     9    10    1
    10    10    11    1
    11    11    12    2
    12    12    13    1
    13    13    14   ar
    14    14    15   ar
    15    15    16   ar
    16    16    17   ar
    17    17    18   ar
    18    18    19   ar
    19    19    20   ar
    20    20    21   ar
    21    21    22   ar
    22    22    23    2
    23    11    24    1
    24    24    25   ar
    25    25    26   ar
    26    26    27   ar
    27    27    28   ar
    28    23     1    1
    29    28    24   ar
    30    22     3   ar
    31    21     6   ar
    32    20     8   ar
    33    13     9   ar
    34    19    14   ar
    35     1    29    1
    36     1    30    1
    37     2    31    1
    38     4    32    1
    39     5    33    1
    40    10    34    1
    41    10    35    1
    42    12    36    1
    43    15    37    1
    44    16    38    1
    45    17    39    1
    46    18    40    1
    47    23    41    1
    48    25    42    1
    49    26    43    1
    50    27    44    1
    51    28    45    1
