@<TRIPOS>MOLECULE
*****
 44 50 0 0 0
SMALL
GASTEIGER

@<TRIPOS>ATOM
      1 SI         -6.2217   -1.4012   -0.3222 Si      1  UNL1        0.0000
      2 C          -6.6283    0.3879    0.0441 C.2     1  UNL1        0.0000
      3 C          -5.5050    1.1121    0.2094 C.ar    1  UNL1        0.0000
      4 C          -5.4890    2.5411    0.5062 C.ar    1  UNL1        0.0000
      5 C          -4.3176    3.1907    0.6566 C.ar    1  UNL1        0.0000
      6 C          -3.1107    2.4406    0.5168 C.ar    1  UNL1        0.0000
      7 O          -1.8438    2.9432    0.6378 O.2     1  UNL1        0.0000
      8 C          -0.9712    1.9181    0.4368 C.ar    1  UNL1        0.0000
      9 C           0.4160    2.0398    0.4797 C.ar    1  UNL1        0.0000
     10 C           1.1676    0.8767    0.2480 C.ar    1  UNL1        0.0000
     11 C           2.6452    0.9812    0.2767 C.ar    1  UNL1        0.0000
     12 C           3.4799   -0.0645    0.0660 C.ar    1  UNL1        0.0000
     13 C           4.9407    0.2185    0.0951 C.ar    1  UNL1        0.0000
     14 N           5.7157   -0.3991   -0.8021 N.ar    1  UNL1        0.0000
     15 C           7.0052   -0.0817   -0.7355 C.ar    1  UNL1        0.0000
     16 N           7.5610    0.7683    0.1229 N.ar    1  UNL1        0.0000
     17 C           6.6940    1.3251    0.9632 C.ar    1  UNL1        0.0000
     18 N           5.3835    1.1021    0.9993 N.ar    1  UNL1        0.0000
     19 C           2.8736   -1.3797   -0.1878 C.ar    1  UNL1        0.0000
     20 C           3.5451   -2.5378   -0.3658 C.2     1  UNL1        0.0000
     21 SI          2.4026   -3.9772   -0.6606 Si      1  UNL1        0.0000
     22 C           0.9696   -2.7957   -0.4761 C.2     1  UNL1        0.0000
     23 C           1.3947   -1.5364   -0.2384 C.ar    1  UNL1        0.0000
     24 C           0.5264   -0.3575   -0.0146 C.ar    1  UNL1        0.0000
     25 C          -0.8813   -0.4299   -0.0487 C.ar    1  UNL1        0.0000
     26 C          -1.6469    0.7306    0.1814 C.ar    1  UNL1        0.0000
     27 C          -3.0205    1.0753    0.2346 C.ar    1  UNL1        0.0000
     28 C          -4.2359    0.3386    0.0655 C.ar    1  UNL1        0.0000
     29 C          -4.4037   -0.9686   -0.2082 C.2     1  UNL1        0.0000
     30 H          -6.6200   -1.8030   -1.6924 H       1  UNL1        0.0000
     31 H          -6.6525   -2.3132    0.7642 H       1  UNL1        0.0000
     32 H          -7.6479    0.7340    0.1024 H       1  UNL1        0.0000
     33 H          -6.4319    3.0683    0.6032 H       1  UNL1        0.0000
     34 H          -4.2663    4.2498    0.8771 H       1  UNL1        0.0000
     35 H           0.8748    2.9999    0.6836 H       1  UNL1        0.0000
     36 H           3.0449    1.9753    0.4650 H       1  UNL1        0.0000
     37 H           7.6660   -0.5622   -1.4490 H       1  UNL1        0.0000
     38 H           7.0922    2.0289    1.6862 H       1  UNL1        0.0000
     39 H           4.6127   -2.6873   -0.3587 H       1  UNL1        0.0000
     40 H           2.5073   -4.5254   -2.0343 H       1  UNL1        0.0000
     41 H           2.4487   -4.9793    0.4312 H       1  UNL1        0.0000
     42 H          -0.0414   -3.1587   -0.5509 H       1  UNL1        0.0000
     43 H          -1.3839   -1.3672   -0.2492 H       1  UNL1        0.0000
     44 H          -3.6481   -1.7203   -0.3545 H       1  UNL1        0.0000
@<TRIPOS>BOND
     1     1     2    1
     2     2     3    2
     3     3     4   ar
     4     4     5   ar
     5     5     6   ar
     6     6     7   ar
     7     7     8   ar
     8     8     9   ar
     9     9    10   ar
    10    10    11   ar
    11    11    12   ar
    12    12    13    1
    13    13    14   ar
    14    14    15   ar
    15    15    16   ar
    16    16    17   ar
    17    17    18   ar
    18    12    19   ar
    19    19    20    2
    20    20    21    1
    21    21    22    1
    22    22    23    2
    23    23    24   ar
    24    24    25   ar
    25    25    26   ar
    26    26    27   ar
    27    27    28   ar
    28    28    29    2
    29    29     1    1
    30    28     3   ar
    31    27     6   ar
    32    26     8   ar
    33    24    10   ar
    34    18    13   ar
    35    23    19   ar
    36     1    30    1
    37     1    31    1
    38     2    32    1
    39     4    33    1
    40     5    34    1
    41     9    35    1
    42    11    36    1
    43    15    37    1
    44    17    38    1
    45    20    39    1
    46    21    40    1
    47    21    41    1
    48    22    42    1
    49    25    43    1
    50    29    44    1
