@<TRIPOS>MOLECULE
*****
 48 55 0 0 0
SMALL
GASTEIGER

@<TRIPOS>ATOM
      1 SI          6.4649    2.1974    1.4219 Si      1  UNL1        0.0000
      2 C           6.9436    0.6376    0.5173 C.2     1  UNL1        0.0000
      3 C           5.8505   -0.0521    0.1385 C.ar    1  UNL1        0.0000
      4 C           5.9066   -1.3844   -0.4409 C.ar    1  UNL1        0.0000
      5 C           4.7696   -2.0750   -0.6437 C.ar    1  UNL1        0.0000
      6 C           3.5236   -1.4299   -0.3570 C.ar    1  UNL1        0.0000
      7 S           2.0456   -2.2616   -0.5016 S.2     1  UNL1        0.0000
      8 C           1.0829   -0.8582   -0.1656 C.ar    1  UNL1        0.0000
      9 C           1.9700    0.2137    0.0105 C.ar    1  UNL1        0.0000
     10 C           1.3576    1.5112    0.0787 C.ar    1  UNL1        0.0000
     11 C           1.8851    2.7652    0.0136 C.ar    1  UNL1        0.0000
     12 O           0.8608    3.6695    0.0953 O.2     1  UNL1        0.0000
     13 C          -0.3041    2.9546    0.1577 C.ar    1  UNL1        0.0000
     14 C          -0.0437    1.6022    0.1117 C.ar    1  UNL1        0.0000
     15 C          -0.9994    0.5749    0.0681 C.ar    1  UNL1        0.0000
     16 C          -2.4350    0.7797    0.1393 C.ar    1  UNL1        0.0000
     17 C          -3.3969   -0.2566    0.0681 C.ar    1  UNL1        0.0000
     18 C          -4.8337   -0.0225    0.1714 C.ar    1  UNL1        0.0000
     19 C          -5.6653   -0.7677    1.0067 C.ar    1  UNL1        0.0000
     20 C          -7.0231   -0.4609    1.0682 C.ar    1  UNL1        0.0000
     21 C          -7.5181    0.5867    0.3040 C.ar    1  UNL1        0.0000
     22 C          -6.6283    1.2922   -0.4860 C.ar    1  UNL1        0.0000
     23 N          -5.3073    1.0188   -0.5609 N.ar    1  UNL1        0.0000
     24 C          -2.7616   -1.4934   -0.1184 C.ar    1  UNL1        0.0000
     25 C          -3.3840   -2.7062   -0.3064 C.ar    1  UNL1        0.0000
     26 N          -2.4038   -3.6550   -0.4550 N.ar    1  UNL1        0.0000
     27 C          -1.1611   -3.0669   -0.3824 C.ar    1  UNL1        0.0000
     28 C          -1.3319   -1.7132   -0.1989 C.ar    1  UNL1        0.0000
     29 C          -0.3470   -0.7066   -0.0993 C.ar    1  UNL1        0.0000
     30 C           3.3469   -0.1189    0.0796 C.ar    1  UNL1        0.0000
     31 C           4.5426    0.5976    0.4569 C.ar    1  UNL1        0.0000
     32 C           4.6715    1.7134    1.2006 C.2     1  UNL1        0.0000
     33 H           6.8853    2.1789    2.8432 H       1  UNL1        0.0000
     34 H           6.8137    3.4224    0.6634 H       1  UNL1        0.0000
     35 H           7.9748    0.3387    0.4166 H       1  UNL1        0.0000
     36 H           6.8726   -1.8286   -0.6551 H       1  UNL1        0.0000
     37 H           4.7909   -3.0846   -1.0404 H       1  UNL1        0.0000
     38 H           2.8644    3.1985   -0.1140 H       1  UNL1        0.0000
     39 H          -1.2021    3.5551    0.1970 H       1  UNL1        0.0000
     40 H          -2.8133    1.7957    0.2588 H       1  UNL1        0.0000
     41 H          -5.2635   -1.5688    1.6187 H       1  UNL1        0.0000
     42 H          -7.6846   -1.0323    1.7129 H       1  UNL1        0.0000
     43 H          -8.5688    0.8521    0.3279 H       1  UNL1        0.0000
     44 H          -6.9620    2.1246   -1.0989 H       1  UNL1        0.0000
     45 H          -4.4255   -2.9917   -0.3625 H       1  UNL1        0.0000
     46 H          -2.5673   -4.6415   -0.6100 H       1  UNL1        0.0000
     47 H          -0.2903   -3.6949   -0.4862 H       1  UNL1        0.0000
     48 H           3.8979    2.2909    1.6759 H       1  UNL1        0.0000
@<TRIPOS>BOND
     1     1     2    1
     2     2     3    2
     3     3     4   ar
     4     4     5   ar
     5     5     6   ar
     6     6     7   ar
     7     7     8   ar
     8     8     9   ar
     9     9    10   ar
    10    10    11   ar
    11    11    12   ar
    12    12    13   ar
    13    13    14   ar
    14    14    15   ar
    15    15    16   ar
    16    16    17   ar
    17    17    18    1
    18    18    19   ar
    19    19    20   ar
    20    20    21   ar
    21    21    22   ar
    22    22    23   ar
    23    17    24   ar
    24    24    25   ar
    25    25    26   ar
    26    26    27   ar
    27    27    28   ar
    28    28    29   ar
    29     9    30   ar
    30    30    31   ar
    31    31    32    2
    32    32     1    1
    33    31     3   ar
    34    30     6   ar
    35    29     8   ar
    36    14    10   ar
    37    29    15   ar
    38    23    18   ar
    39    28    24   ar
    40     1    33    1
    41     1    34    1
    42     2    35    1
    43     4    36    1
    44     5    37    1
    45    11    38    1
    46    13    39    1
    47    16    40    1
    48    19    41    1
    49    20    42    1
    50    21    43    1
    51    22    44    1
    52    25    45    1
    53    26    46    1
    54    27    47    1
    55    32    48    1
