@<TRIPOS>MOLECULE
*****
 41 47 0 0 0
SMALL
GASTEIGER

@<TRIPOS>ATOM
      1 SI          1.8148   -1.4860    1.7247 Si      1  UNL1        0.0000
      2 C           2.5154    0.1603    1.1371 C.2     1  UNL1        0.0000
      3 C           1.6079    0.9248    0.4973 C.2     1  UNL1        0.0000
      4 C           0.2753    0.3068    0.3912 C.ar    1  UNL1        0.0000
      5 C          -0.8204    0.8959   -0.2237 C.ar    1  UNL1        0.0000
      6 C          -2.0444    0.1861   -0.2582 C.ar    1  UNL1        0.0000
      7 C          -3.2508    0.6316   -0.8381 C.ar    1  UNL1        0.0000
      8 C          -3.4685    1.8348   -1.4762 C.ar    1  UNL1        0.0000
      9 N          -4.7894    1.8670   -1.8932 N.ar    1  UNL1        0.0000
     10 C          -5.4315    0.6999   -1.5343 C.ar    1  UNL1        0.0000
     11 C          -4.4804   -0.0374   -0.8939 C.ar    1  UNL1        0.0000
     12 C          -4.5768   -1.3331   -0.3056 C.ar    1  UNL1        0.0000
     13 C          -5.7333   -2.1301   -0.2774 C.ar    1  UNL1        0.0000
     14 C          -5.4618   -3.3144    0.3701 C.ar    1  UNL1        0.0000
     15 S          -3.8370   -3.4151    0.9124 S.2     1  UNL1        0.0000
     16 C          -3.4269   -1.8414    0.2872 C.ar    1  UNL1        0.0000
     17 C          -2.1697   -1.1208    0.3270 C.ar    1  UNL1        0.0000
     18 C          -1.0377   -1.6923    0.9464 C.ar    1  UNL1        0.0000
     19 C           0.1618   -0.9789    0.9723 C.ar    1  UNL1        0.0000
     20 C           3.8567    0.5332    1.3437 C.ar    1  UNL1        0.0000
     21 S           4.6117    0.6847    2.9036 S.2     1  UNL1        0.0000
     22 C           6.1431    1.1751    2.2428 C.ar    1  UNL1        0.0000
     23 C           6.0179    1.1972    0.9011 C.ar    1  UNL1        0.0000
     24 C           6.7638    1.4664   -0.2721 C.ar    1  UNL1        0.0000
     25 C           5.9016    1.2501   -1.3686 C.ar    1  UNL1        0.0000
     26 N           4.6315    0.8543   -0.9533 N.ar    1  UNL1        0.0000
     27 C           4.7805    0.8505    0.4058 C.ar    1  UNL1        0.0000
     28 H           1.7366   -1.6089    3.2035 H       1  UNL1        0.0000
     29 H           2.4069   -2.6509    1.0160 H       1  UNL1        0.0000
     30 H           1.7981    1.9111    0.0935 H       1  UNL1        0.0000
     31 H          -0.7392    1.8819   -0.6678 H       1  UNL1        0.0000
     32 H          -2.8226    2.6779   -1.6792 H       1  UNL1        0.0000
     33 H          -5.2198    2.6374   -2.3885 H       1  UNL1        0.0000
     34 H          -6.4727    0.5331   -1.7712 H       1  UNL1        0.0000
     35 H          -6.7006   -1.8787   -0.6916 H       1  UNL1        0.0000
     36 H          -6.1396   -4.1360    0.5562 H       1  UNL1        0.0000
     37 H          -1.0872   -2.6769    1.4038 H       1  UNL1        0.0000
     38 H           6.9888    1.3987    2.8765 H       1  UNL1        0.0000
     39 H           7.7983    1.7755   -0.3421 H       1  UNL1        0.0000
     40 H           6.0984    1.3461   -2.4287 H       1  UNL1        0.0000
     41 H           3.8010    0.6206   -1.4841 H       1  UNL1        0.0000
@<TRIPOS>BOND
     1     1     2    1
     2     2     3    2
     3     3     4    1
     4     4     5   ar
     5     5     6   ar
     6     6     7   ar
     7     7     8   ar
     8     8     9   ar
     9     9    10   ar
    10    10    11   ar
    11    11    12   ar
    12    12    13   ar
    13    13    14   ar
    14    14    15   ar
    15    15    16   ar
    16    16    17   ar
    17    17    18   ar
    18    18    19   ar
    19     2    20    1
    20    20    21   ar
    21    21    22   ar
    22    22    23   ar
    23    23    24   ar
    24    24    25   ar
    25    25    26   ar
    26    26    27   ar
    27    19     1    1
    28    27    20   ar
    29    19     4   ar
    30    27    23   ar
    31    17     6   ar
    32    11     7   ar
    33    16    12   ar
    34     1    28    1
    35     1    29    1
    36     3    30    1
    37     5    31    1
    38     8    32    1
    39     9    33    1
    40    10    34    1
    41    13    35    1
    42    14    36    1
    43    18    37    1
    44    22    38    1
    45    24    39    1
    46    25    40    1
    47    26    41    1
