@<TRIPOS>MOLECULE
*****
 43 49 0 0 0
SMALL
GASTEIGER

@<TRIPOS>ATOM
      1 SI         -6.3724   -1.4033   -0.5035 Si      1  UNL1        0.0000
      2 C          -6.5907    0.4107   -0.1248 C.2     1  UNL1        0.0000
      3 C          -5.3978    1.0145    0.0375 C.ar    1  UNL1        0.0000
      4 C          -5.2422    2.4533    0.1761 C.ar    1  UNL1        0.0000
      5 C          -4.0119    2.9982    0.1616 C.ar    1  UNL1        0.0000
      6 C          -2.8819    2.1208    0.0977 C.ar    1  UNL1        0.0000
      7 S          -1.2970    2.7329   -0.0451 S.2     1  UNL1        0.0000
      8 C          -0.5726    1.1602    0.0806 C.ar    1  UNL1        0.0000
      9 C          -1.5902    0.2274    0.2835 C.ar    1  UNL1        0.0000
     10 C          -1.1535   -1.1045    0.6424 C.ar    1  UNL1        0.0000
     11 C          -1.9289   -2.1016    1.1623 C.ar    1  UNL1        0.0000
     12 S          -0.9807   -3.5101    1.4257 S.2     1  UNL1        0.0000
     13 C           0.4623   -2.7051    0.9422 C.ar    1  UNL1        0.0000
     14 C           0.2382   -1.3904    0.5839 C.ar    1  UNL1        0.0000
     15 C           1.2884   -0.5005    0.2509 C.ar    1  UNL1        0.0000
     16 C           2.6724   -0.7839    0.1737 C.ar    1  UNL1        0.0000
     17 C           3.5722    0.2404   -0.1190 C.ar    1  UNL1        0.0000
     18 N           3.1450    1.5160   -0.3274 N.ar    1  UNL1        0.0000
     19 C           1.8137    1.7713   -0.2496 C.ar    1  UNL1        0.0000
     20 C           0.8295    0.8164    0.0277 C.ar    1  UNL1        0.0000
     21 C           5.0340    0.0016   -0.2133 C.ar    1  UNL1        0.0000
     22 C           5.9377    1.0262   -0.5051 C.ar    1  UNL1        0.0000
     23 C           7.3004    0.7433   -0.5810 C.ar    1  UNL1        0.0000
     24 C           7.7373   -0.5555   -0.3647 C.ar    1  UNL1        0.0000
     25 C           6.7890   -1.5210   -0.0804 C.ar    1  UNL1        0.0000
     26 N           5.4619   -1.2756   -0.0005 N.ar    1  UNL1        0.0000
     27 C          -2.9088    0.7259    0.1037 C.ar    1  UNL1        0.0000
     28 C          -4.2088    0.1137   -0.0488 C.ar    1  UNL1        0.0000
     29 C          -4.5216   -1.1436   -0.4195 C.2     1  UNL1        0.0000
     30 H          -6.8330   -1.7568   -1.8673 H       1  UNL1        0.0000
     31 H          -6.8657   -2.2737    0.5902 H       1  UNL1        0.0000
     32 H          -7.5643    0.8746   -0.1353 H       1  UNL1        0.0000
     33 H          -6.1266    3.0786    0.2340 H       1  UNL1        0.0000
     34 H          -3.8753    4.0729    0.2232 H       1  UNL1        0.0000
     35 H          -2.9721   -2.1112    1.4354 H       1  UNL1        0.0000
     36 H           1.3933   -3.2523    0.9884 H       1  UNL1        0.0000
     37 H           3.0454   -1.7883    0.3444 H       1  UNL1        0.0000
     38 H           1.5641    2.8129   -0.4342 H       1  UNL1        0.0000
     39 H           5.5858    2.0401   -0.6728 H       1  UNL1        0.0000
     40 H           8.0098    1.5340   -0.8073 H       1  UNL1        0.0000
     41 H           8.7899   -0.8092   -0.4162 H       1  UNL1        0.0000
     42 H           7.0792   -2.5527    0.0969 H       1  UNL1        0.0000
     43 H          -3.8536   -1.9468   -0.6801 H       1  UNL1        0.0000
@<TRIPOS>BOND
     1     1     2    1
     2     2     3    2
     3     3     4   ar
     4     4     5   ar
     5     5     6   ar
     6     6     7   ar
     7     7     8   ar
     8     8     9   ar
     9     9    10   ar
    10    10    11   ar
    11    11    12   ar
    12    12    13   ar
    13    13    14   ar
    14    14    15   ar
    15    15    16   ar
    16    16    17   ar
    17    17    18   ar
    18    18    19   ar
    19    19    20   ar
    20    17    21    1
    21    21    22   ar
    22    22    23   ar
    23    23    24   ar
    24    24    25   ar
    25    25    26   ar
    26     9    27   ar
    27    27    28   ar
    28    28    29    2
    29    29     1    1
    30    28     3   ar
    31    27     6   ar
    32    20     8   ar
    33    26    21   ar
    34    14    10   ar
    35    20    15   ar
    36     1    30    1
    37     1    31    1
    38     2    32    1
    39     4    33    1
    40     5    34    1
    41    11    35    1
    42    13    36    1
    43    16    37    1
    44    19    38    1
    45    22    39    1
    46    23    40    1
    47    24    41    1
    48    25    42    1
    49    29    43    1
