@<TRIPOS>MOLECULE
*****
 40 46 0 0 0
SMALL
GASTEIGER

@<TRIPOS>ATOM
      1 SI         -6.9956   -0.2845    0.0388 Si      1  UNL1        0.0000
      2 C          -6.5578    0.9894    1.3426 C.2     1  UNL1        0.0000
      3 C          -5.2224    1.1373    1.4374 C.ar    1  UNL1        0.0000
      4 C          -4.5623    2.0525    2.3589 C.ar    1  UNL1        0.0000
      5 C          -3.2174    2.1361    2.3869 C.ar    1  UNL1        0.0000
      6 C          -2.4707    1.3054    1.4915 C.ar    1  UNL1        0.0000
      7 S          -0.7572    1.3235    1.4359 S.2     1  UNL1        0.0000
      8 C          -0.7523    0.1572    0.2244 C.ar    1  UNL1        0.0000
      9 C          -1.9941   -0.2807   -0.1767 C.ar    1  UNL1        0.0000
     10 N          -2.1378   -1.2245   -1.1509 N.ar    1  UNL1        0.0000
     11 C          -1.0491   -1.7636   -1.7581 C.ar    1  UNL1        0.0000
     12 C           0.2662   -1.4121   -1.4496 C.ar    1  UNL1        0.0000
     13 C           1.5701   -1.7698   -1.8772 C.ar    1  UNL1        0.0000
     14 C           2.4822   -1.0208   -1.1380 C.ar    1  UNL1        0.0000
     15 O           1.7725   -0.2173   -0.2731 O.2     1  UNL1        0.0000
     16 C           0.4608   -0.4650   -0.4742 C.ar    1  UNL1        0.0000
     17 C           3.9236   -1.0140   -1.1921 C.ar    1  UNL1        0.0000
     18 S           4.7954   -2.0378   -2.2951 S.2     1  UNL1        0.0000
     19 C           6.3375   -1.4753   -1.7743 C.ar    1  UNL1        0.0000
     20 C           6.1690   -0.5446   -0.7981 C.ar    1  UNL1        0.0000
     21 SI          7.3050    0.5194    0.2622 Si      1  UNL1        0.0000
     22 C           5.7506    1.2498    1.0882 C.2     1  UNL1        0.0000
     23 C           4.6192    0.7145    0.5784 C.2     1  UNL1        0.0000
     24 C           4.8156   -0.2673   -0.4523 C.ar    1  UNL1        0.0000
     25 C          -3.0020    0.3976    0.5718 C.ar    1  UNL1        0.0000
     26 C          -4.4333    0.2783    0.5106 C.ar    1  UNL1        0.0000
     27 C          -5.1745   -0.5175   -0.2832 C.2     1  UNL1        0.0000
     28 H          -7.6348   -1.4858    0.6282 H       1  UNL1        0.0000
     29 H          -7.7114    0.3199   -1.1106 H       1  UNL1        0.0000
     30 H          -7.3198    1.5014    1.9078 H       1  UNL1        0.0000
     31 H          -5.1704    2.6621    3.0186 H       1  UNL1        0.0000
     32 H          -2.7103    2.8124    3.0670 H       1  UNL1        0.0000
     33 H          -1.2718   -2.5059   -2.5195 H       1  UNL1        0.0000
     34 H           1.8198   -2.4941   -2.6401 H       1  UNL1        0.0000
     35 H           7.2464   -1.8619   -2.2151 H       1  UNL1        0.0000
     36 H           8.1183   -0.2531    1.2339 H       1  UNL1        0.0000
     37 H           8.0454    1.5542   -0.5016 H       1  UNL1        0.0000
     38 H           5.8297    1.9962    1.8622 H       1  UNL1        0.0000
     39 H           3.6315    1.0030    0.9204 H       1  UNL1        0.0000
     40 H          -4.8137   -1.2147   -1.0231 H       1  UNL1        0.0000
@<TRIPOS>BOND
     1     1     2    1
     2     2     3    2
     3     3     4   ar
     4     4     5   ar
     5     5     6   ar
     6     6     7   ar
     7     7     8   ar
     8     8     9   ar
     9     9    10   ar
    10    10    11   ar
    11    11    12   ar
    12    12    13   ar
    13    13    14   ar
    14    14    15   ar
    15    15    16   ar
    16    14    17    1
    17    17    18   ar
    18    18    19   ar
    19    19    20   ar
    20    20    21    1
    21    21    22    1
    22    22    23    2
    23    23    24    1
    24     9    25   ar
    25    25    26   ar
    26    26    27    2
    27    27     1    1
    28    26     3   ar
    29    25     6   ar
    30    16     8   ar
    31    24    17   ar
    32    16    12   ar
    33    24    20   ar
    34     1    28    1
    35     1    29    1
    36     2    30    1
    37     4    31    1
    38     5    32    1
    39    11    33    1
    40    13    34    1
    41    19    35    1
    42    21    36    1
    43    21    37    1
    44    22    38    1
    45    23    39    1
    46    27    40    1
