@<TRIPOS>MOLECULE
*****
 40 46 0 0 0
SMALL
GASTEIGER

@<TRIPOS>ATOM
      1 SI          5.9581    2.2873    0.6992 Si      1  UNL1        0.0000
      2 C           6.4262    0.6937   -0.1601 C.2     1  UNL1        0.0000
      3 C           5.3312   -0.0336   -0.4528 C.ar    1  UNL1        0.0000
      4 C           5.3666   -1.3260   -1.1236 C.ar    1  UNL1        0.0000
      5 C           4.2225   -1.9902   -1.3800 C.ar    1  UNL1        0.0000
      6 C           2.9839   -1.3916   -0.9764 C.ar    1  UNL1        0.0000
      7 S           1.4890   -2.1631   -1.2614 S.2     1  UNL1        0.0000
      8 C           0.6242   -0.8370   -0.5103 C.ar    1  UNL1        0.0000
      9 C           1.4842    0.1451   -0.0680 C.ar    1  UNL1        0.0000
     10 S           0.6198    1.4702    0.6830 S.2     1  UNL1        0.0000
     11 C          -0.8756    0.6980    0.3974 C.ar    1  UNL1        0.0000
     12 C          -2.1104    1.2988    0.8053 C.ar    1  UNL1        0.0000
     13 C          -3.2768    0.6545    0.5552 C.ar    1  UNL1        0.0000
     14 C          -4.4773    1.2850    1.0109 C.ar    1  UNL1        0.0000
     15 C          -5.3503    0.9027    2.0171 C.ar    1  UNL1        0.0000
     16 N          -6.4531    1.7118    2.2153 N.ar    1  UNL1        0.0000
     17 C          -6.4162    2.7028    1.3538 C.ar    1  UNL1        0.0000
     18 S          -5.0861    2.7232    0.2745 S.2     1  UNL1        0.0000
     19 C          -3.2291   -0.6561   -0.1272 C.ar    1  UNL1        0.0000
     20 C          -4.3110   -1.3984   -0.4474 C.2     1  UNL1        0.0000
     21 SI         -3.8292   -2.9829   -1.3080 Si      1  UNL1        0.0000
     22 C          -2.0445   -2.4611   -1.1565 C.2     1  UNL1        0.0000
     23 C          -1.9291   -1.2688   -0.5411 C.ar    1  UNL1        0.0000
     24 C          -0.7436   -0.5220   -0.2434 C.ar    1  UNL1        0.0000
     25 C           2.8514   -0.1689   -0.3343 C.ar    1  UNL1        0.0000
     26 C           4.0374    0.5819   -0.0364 C.ar    1  UNL1        0.0000
     27 C           4.1632    1.7767    0.5717 C.2     1  UNL1        0.0000
     28 H           6.2683    3.4816   -0.1227 H       1  UNL1        0.0000
     29 H           6.4374    2.3319    2.1014 H       1  UNL1        0.0000
     30 H           7.4549    0.4454   -0.3667 H       1  UNL1        0.0000
     31 H           6.3260   -1.7422   -1.4117 H       1  UNL1        0.0000
     32 H           4.2340   -2.9537   -1.8789 H       1  UNL1        0.0000
     33 H          -2.0867    2.2569    1.3180 H       1  UNL1        0.0000
     34 H          -5.2230    0.0276    2.6437 H       1  UNL1        0.0000
     35 H          -7.1818    3.4670    1.3206 H       1  UNL1        0.0000
     36 H          -5.3486   -1.1653   -0.2667 H       1  UNL1        0.0000
     37 H          -4.1399   -4.1815   -0.4932 H       1  UNL1        0.0000
     38 H          -4.2913   -3.0236   -2.7157 H       1  UNL1        0.0000
     39 H          -1.2618   -3.0898   -1.5446 H       1  UNL1        0.0000
     40 H           3.3872    2.4135    0.9598 H       1  UNL1        0.0000
@<TRIPOS>BOND
     1     1     2    1
     2     2     3    2
     3     3     4   ar
     4     4     5   ar
     5     5     6   ar
     6     6     7   ar
     7     7     8   ar
     8     8     9   ar
     9     9    10   ar
    10    10    11   ar
    11    11    12   ar
    12    12    13   ar
    13    13    14    1
    14    14    15   ar
    15    15    16   ar
    16    16    17   ar
    17    17    18   ar
    18    13    19   ar
    19    19    20    2
    20    20    21    1
    21    21    22    1
    22    22    23    2
    23    23    24   ar
    24     9    25   ar
    25    25    26   ar
    26    26    27    2
    27    27     1    1
    28    26     3   ar
    29    25     6   ar
    30    24     8   ar
    31    24    11   ar
    32    18    14   ar
    33    23    19   ar
    34     1    28    1
    35     1    29    1
    36     2    30    1
    37     4    31    1
    38     5    32    1
    39    12    33    1
    40    15    34    1
    41    17    35    1
    42    20    36    1
    43    21    37    1
    44    21    38    1
    45    22    39    1
    46    27    40    1
