@<TRIPOS>MOLECULE
*****
 42 49 0 0 0
SMALL
GASTEIGER

@<TRIPOS>ATOM
      1 SI         -6.3346   -2.5418    0.8511 Si      1  UNL1        0.0000
      2 C          -6.9373   -0.9322    0.1145 C.2     1  UNL1        0.0000
      3 C          -5.9054   -0.1075   -0.1472 C.ar    1  UNL1        0.0000
      4 C          -6.0511    1.2215   -0.7252 C.ar    1  UNL1        0.0000
      5 C          -4.9648    1.9848   -0.9561 C.ar    1  UNL1        0.0000
      6 C          -3.6769    1.4535   -0.6187 C.ar    1  UNL1        0.0000
      7 S          -2.2500    2.3505   -0.8769 S.2     1  UNL1        0.0000
      8 C          -1.2675    1.0506   -0.2390 C.ar    1  UNL1        0.0000
      9 C          -2.0467   -0.0235    0.1506 C.ar    1  UNL1        0.0000
     10 S          -1.0760   -1.3431    0.7963 S.2     1  UNL1        0.0000
     11 C           0.3827   -0.4618    0.5475 C.ar    1  UNL1        0.0000
     12 C           1.7093   -0.8742    0.8380 C.ar    1  UNL1        0.0000
     13 C           2.8173   -0.0384    0.5717 C.ar    1  UNL1        0.0000
     14 C           4.1729   -0.4476    0.8575 C.ar    1  UNL1        0.0000
     15 S           4.7493   -0.7821    2.4559 S.2     1  UNL1        0.0000
     16 C           6.3559   -1.1819    1.9086 C.ar    1  UNL1        0.0000
     17 C           6.3731   -1.0550    0.5647 C.ar    1  UNL1        0.0000
     18 C           7.2447   -1.1990   -0.5259 C.ar    1  UNL1        0.0000
     19 C           6.4738   -0.8713   -1.6493 C.ar    1  UNL1        0.0000
     20 O           5.1660   -0.5256   -1.3603 O.2     1  UNL1        0.0000
     21 C           5.1868   -0.6597   -0.0050 C.ar    1  UNL1        0.0000
     22 C           2.4793    1.2103    0.0164 C.ar    1  UNL1        0.0000
     23 C           3.4051    2.1874   -0.2918 C.ar    1  UNL1        0.0000
     24 S           2.6802    3.6031   -0.9518 S.2     1  UNL1        0.0000
     25 C           1.0978    2.9385   -0.8245 C.ar    1  UNL1        0.0000
     26 C           1.1666    1.6821   -0.2942 C.ar    1  UNL1        0.0000
     27 C           0.0960    0.7677   -0.0011 C.ar    1  UNL1        0.0000
     28 C          -3.4400    0.2037   -0.0665 C.ar    1  UNL1        0.0000
     29 C          -4.5605   -0.6520    0.2007 C.ar    1  UNL1        0.0000
     30 C          -4.5847   -1.8917    0.7258 C.2     1  UNL1        0.0000
     31 H          -6.5762   -3.6968   -0.0464 H       1  UNL1        0.0000
     32 H          -6.7750   -2.7175    2.2558 H       1  UNL1        0.0000
     33 H          -7.9860   -0.7472   -0.0549 H       1  UNL1        0.0000
     34 H          -7.0449    1.5840   -0.9654 H       1  UNL1        0.0000
     35 H          -5.0587    2.9766   -1.3862 H       1  UNL1        0.0000
     36 H           1.8731   -1.8616    1.2670 H       1  UNL1        0.0000
     37 H           7.1313   -1.4730    2.6026 H       1  UNL1        0.0000
     38 H           8.2833   -1.4963   -0.5325 H       1  UNL1        0.0000
     39 H           6.7101   -0.8386   -2.7051 H       1  UNL1        0.0000
     40 H           4.4800    2.1684   -0.1777 H       1  UNL1        0.0000
     41 H           0.2579    3.5320   -1.1477 H       1  UNL1        0.0000
     42 H          -3.7565   -2.4953    1.0540 H       1  UNL1        0.0000
@<TRIPOS>BOND
     1     1     2    1
     2     2     3    2
     3     3     4   ar
     4     4     5   ar
     5     5     6   ar
     6     6     7   ar
     7     7     8   ar
     8     8     9   ar
     9     9    10   ar
    10    10    11   ar
    11    11    12   ar
    12    12    13   ar
    13    13    14    1
    14    14    15   ar
    15    15    16   ar
    16    16    17   ar
    17    17    18   ar
    18    18    19   ar
    19    19    20   ar
    20    20    21   ar
    21    13    22   ar
    22    22    23   ar
    23    23    24   ar
    24    24    25   ar
    25    25    26   ar
    26    26    27   ar
    27     9    28   ar
    28    28    29   ar
    29    29    30    2
    30    30     1    1
    31    29     3   ar
    32    28     6   ar
    33    27     8   ar
    34    27    11   ar
    35    21    14   ar
    36    26    22   ar
    37    21    17   ar
    38     1    31    1
    39     1    32    1
    40     2    33    1
    41     4    34    1
    42     5    35    1
    43    12    36    1
    44    16    37    1
    45    18    38    1
    46    19    39    1
    47    23    40    1
    48    25    41    1
    49    30    42    1
