@<TRIPOS>MOLECULE
*****
 42 48 0 0 0
SMALL
GASTEIGER

@<TRIPOS>ATOM
      1 SI          5.5666    2.1279    1.5127 Si      1  UNL1        0.0000
      2 C           6.3973    0.8659    0.4228 C.2     1  UNL1        0.0000
      3 C           5.4885    0.0791   -0.1844 C.ar    1  UNL1        0.0000
      4 C           5.8425   -0.9966   -1.0953 C.ar    1  UNL1        0.0000
      5 C           4.8776   -1.7411   -1.6644 C.ar    1  UNL1        0.0000
      6 C           3.5145   -1.4423   -1.3472 C.ar    1  UNL1        0.0000
      7 S           2.2381   -2.3357   -2.0241 S.2     1  UNL1        0.0000
      8 C           1.0431   -1.4134   -1.1979 C.ar    1  UNL1        0.0000
      9 C          -0.3559   -1.6155   -1.2943 C.ar    1  UNL1        0.0000
     10 C          -1.2496   -0.8103   -0.5814 C.ar    1  UNL1        0.0000
     11 C          -2.6762   -1.0276   -0.6906 C.ar    1  UNL1        0.0000
     12 C          -3.6831   -0.2751   -0.0246 C.ar    1  UNL1        0.0000
     13 C          -5.1018   -0.5076   -0.1726 C.ar    1  UNL1        0.0000
     14 C          -6.2431    0.2660   -0.0852 C.ar    1  UNL1        0.0000
     15 C          -7.3409   -0.5891   -0.3527 C.ar    1  UNL1        0.0000
     16 C          -6.8056   -1.8304   -0.5952 C.ar    1  UNL1        0.0000
     17 O          -5.4530   -1.7901   -0.4961 O.2     1  UNL1        0.0000
     18 C          -3.1059    0.7116    0.7765 C.ar    1  UNL1        0.0000
     19 C          -3.7112    1.6138    1.6147 C.ar    1  UNL1        0.0000
     20 O          -2.7677    2.3961    2.2206 O.2     1  UNL1        0.0000
     21 C          -1.5439    1.9794    1.7801 C.ar    1  UNL1        0.0000
     22 C          -1.6985    0.9398    0.8998 C.ar    1  UNL1        0.0000
     23 C          -0.6885    0.2071    0.2342 C.ar    1  UNL1        0.0000
     24 C           0.7123    0.4065    0.3300 C.ar    1  UNL1        0.0000
     25 C           1.6112   -0.4140   -0.3972 C.ar    1  UNL1        0.0000
     26 C           3.0548   -0.4419   -0.4936 C.ar    1  UNL1        0.0000
     27 C           4.0612    0.3837    0.1408 C.ar    1  UNL1        0.0000
     28 C           3.9131    1.4106    1.0007 C.2     1  UNL1        0.0000
     29 H           5.8492    1.9137    2.9520 H       1  UNL1        0.0000
     30 H           5.7514    3.5149    1.0231 H       1  UNL1        0.0000
     31 H           7.4707    0.8189    0.3295 H       1  UNL1        0.0000
     32 H           6.8889   -1.1880   -1.3070 H       1  UNL1        0.0000
     33 H           5.1230   -2.5483   -2.3467 H       1  UNL1        0.0000
     34 H          -0.7295   -2.4118   -1.9352 H       1  UNL1        0.0000
     35 H          -3.0140   -1.8343   -1.3465 H       1  UNL1        0.0000
     36 H          -6.2869    1.3242    0.1277 H       1  UNL1        0.0000
     37 H          -8.3901   -0.3307   -0.3736 H       1  UNL1        0.0000
     38 H          -7.2273   -2.7943   -0.8436 H       1  UNL1        0.0000
     39 H          -4.7299    1.8316    1.9000 H       1  UNL1        0.0000
     40 H          -0.6995    2.5133    2.1917 H       1  UNL1        0.0000
     41 H           1.0845    1.1963    0.9684 H       1  UNL1        0.0000
     42 H           3.0138    1.8376    1.4008 H       1  UNL1        0.0000
@<TRIPOS>BOND
     1     1     2    1
     2     2     3    2
     3     3     4   ar
     4     4     5   ar
     5     5     6   ar
     6     6     7   ar
     7     7     8   ar
     8     8     9   ar
     9     9    10   ar
    10    10    11   ar
    11    11    12   ar
    12    12    13    1
    13    13    14   ar
    14    14    15   ar
    15    15    16   ar
    16    16    17   ar
    17    12    18   ar
    18    18    19   ar
    19    19    20   ar
    20    20    21   ar
    21    21    22   ar
    22    22    23   ar
    23    23    24   ar
    24    24    25   ar
    25    25    26   ar
    26    26    27   ar
    27    27    28    2
    28    28     1    1
    29    27     3   ar
    30    26     6   ar
    31    25     8   ar
    32    23    10   ar
    33    17    13   ar
    34    22    18   ar
    35     1    29    1
    36     1    30    1
    37     2    31    1
    38     4    32    1
    39     5    33    1
    40     9    34    1
    41    11    35    1
    42    14    36    1
    43    15    37    1
    44    16    38    1
    45    19    39    1
    46    21    40    1
    47    24    41    1
    48    28    42    1
