@<TRIPOS>MOLECULE
*****
 44 50 0 0 0
SMALL
GASTEIGER

@<TRIPOS>ATOM
      1 SI          5.7582    1.0537   -2.3885 Si      1  UNL1        0.0000
      2 C           6.7386    0.2058   -1.0397 C.2     1  UNL1        0.0000
      3 C           5.9207   -0.2470   -0.0716 C.ar    1  UNL1        0.0000
      4 C           6.3510   -0.9346    1.1271 C.ar    1  UNL1        0.0000
      5 C           5.4205   -1.3151    2.0209 C.ar    1  UNL1        0.0000
      6 C           3.9961   -1.0622    1.8146 C.ar    1  UNL1        0.0000
      7 C           3.4975   -0.4467    0.7137 C.ar    1  UNL1        0.0000
      8 C           2.0669   -0.2467    0.6172 C.2     1  UNL1        0.0000
      9 C           1.3405    0.7160    1.2200 C.2     1  UNL1        0.0000
     10 C          -0.0999    0.6568    0.9214 C.ar    1  UNL1        0.0000
     11 C          -1.0427    1.5420    1.4268 C.ar    1  UNL1        0.0000
     12 C          -2.3954    1.3655    1.0543 C.ar    1  UNL1        0.0000
     13 S          -3.7098    2.3603    1.5773 S.2     1  UNL1        0.0000
     14 C          -4.8753    1.4631    0.6910 C.ar    1  UNL1        0.0000
     15 C          -6.2859    1.6982    0.6205 C.ar    1  UNL1        0.0000
     16 C          -7.1468    0.8893   -0.1452 C.ar    1  UNL1        0.0000
     17 C          -6.4525   -0.1192   -0.7878 C.ar    1  UNL1        0.0000
     18 C          -7.0110   -1.0695   -1.6073 C.ar    1  UNL1        0.0000
     19 O          -6.0383   -1.9147   -2.0768 O.2     1  UNL1        0.0000
     20 C          -4.8401   -1.4983   -1.5494 C.ar    1  UNL1        0.0000
     21 C          -5.0793   -0.4106   -0.7666 C.ar    1  UNL1        0.0000
     22 C          -4.2253    0.4333    0.0244 C.ar    1  UNL1        0.0000
     23 C          -2.8157    0.3337    0.1973 C.ar    1  UNL1        0.0000
     24 C          -1.8285   -0.5566   -0.3044 C.ar    1  UNL1        0.0000
     25 C          -0.4928   -0.3820    0.0636 C.ar    1  UNL1        0.0000
     26 SI          1.0115   -1.4010   -0.4470 Si      1  UNL1        0.0000
     27 C           4.4755    0.0120   -0.2873 C.ar    1  UNL1        0.0000
     28 C           4.1983    0.6784   -1.4271 C.2     1  UNL1        0.0000
     29 H           5.8200    0.3199   -3.6758 H       1  UNL1        0.0000
     30 H           6.0437    2.5067   -2.4664 H       1  UNL1        0.0000
     31 H           7.8131    0.1296   -1.0815 H       1  UNL1        0.0000
     32 H           7.4054   -1.1261    1.2893 H       1  UNL1        0.0000
     33 H           5.7087   -1.8290    2.9327 H       1  UNL1        0.0000
     34 H           3.3357   -1.4088    2.6061 H       1  UNL1        0.0000
     35 H           1.7514    1.4801    1.8670 H       1  UNL1        0.0000
     36 H          -0.7549    2.3511    2.0911 H       1  UNL1        0.0000
     37 H          -6.7083    2.5326    1.1790 H       1  UNL1        0.0000
     38 H          -8.2135    1.0577   -0.2056 H       1  UNL1        0.0000
     39 H          -8.0135   -1.2863   -1.9486 H       1  UNL1        0.0000
     40 H          -3.9854   -2.0859   -1.8442 H       1  UNL1        0.0000
     41 H          -2.0978   -1.3693   -0.9689 H       1  UNL1        0.0000
     42 H           0.9421   -2.7877    0.0834 H       1  UNL1        0.0000
     43 H           1.2847   -1.2783   -1.9031 H       1  UNL1        0.0000
     44 H           3.2325    0.9901   -1.7903 H       1  UNL1        0.0000
@<TRIPOS>BOND
     1     1     2    1
     2     2     3    2
     3     3     4   ar
     4     4     5   ar
     5     5     6   ar
     6     6     7   ar
     7     7     8    1
     8     8     9    2
     9     9    10    1
    10    10    11   ar
    11    11    12   ar
    12    12    13   ar
    13    13    14   ar
    14    14    15   ar
    15    15    16   ar
    16    16    17   ar
    17    17    18   ar
    18    18    19   ar
    19    19    20   ar
    20    20    21   ar
    21    21    22   ar
    22    22    23   ar
    23    23    24   ar
    24    24    25   ar
    25    25    26    1
    26     7    27   ar
    27    27    28    2
    28    28     1    1
    29    27     3   ar
    30    26     8    1
    31    25    10   ar
    32    23    12   ar
    33    22    14   ar
    34    21    17   ar
    35     1    29    1
    36     1    30    1
    37     2    31    1
    38     4    32    1
    39     5    33    1
    40     6    34    1
    41     9    35    1
    42    11    36    1
    43    15    37    1
    44    16    38    1
    45    18    39    1
    46    20    40    1
    47    24    41    1
    48    26    42    1
    49    26    43    1
    50    28    44    1
