@<TRIPOS>MOLECULE
*****
 46 52 0 0 0
SMALL
GASTEIGER

@<TRIPOS>ATOM
      1 SI         -5.7679    0.7242   -2.1992 Si      1  UNL1        0.0000
      2 C          -6.6920    0.0372   -0.7248 C.2     1  UNL1        0.0000
      3 C          -5.8423   -0.2362    0.2824 C.ar    1  UNL1        0.0000
      4 C          -6.2261   -0.7621    1.5752 C.ar    1  UNL1        0.0000
      5 C          -5.2682   -0.9695    2.4966 C.ar    1  UNL1        0.0000
      6 C          -3.8595   -0.6881    2.2294 C.ar    1  UNL1        0.0000
      7 C          -3.4028   -0.2164    1.0426 C.ar    1  UNL1        0.0000
      8 C          -1.9843    0.0274    0.8911 C.2     1  UNL1        0.0000
      9 C          -1.2946    1.0915    1.3399 C.2     1  UNL1        0.0000
     10 C           0.1436    1.0521    1.0236 C.ar    1  UNL1        0.0000
     11 C           1.0179    2.0529    1.3988 C.ar    1  UNL1        0.0000
     12 C           2.3684    1.9406    1.0594 C.ar    1  UNL1        0.0000
     13 C           2.9136    0.8489    0.3425 C.ar    1  UNL1        0.0000
     14 C           4.3312    0.8750    0.0659 C.ar    1  UNL1        0.0000
     15 N           5.0815    1.9204    0.4913 N.ar    1  UNL1        0.0000
     16 C           6.4114    1.9636    0.2422 C.ar    1  UNL1        0.0000
     17 C           7.1009    0.9873   -0.4406 C.ar    1  UNL1        0.0000
     18 C           6.3792   -0.1011   -0.8959 C.ar    1  UNL1        0.0000
     19 C           4.9855   -0.1678   -0.6467 C.ar    1  UNL1        0.0000
     20 C           4.1139   -1.2106   -1.0457 C.ar    1  UNL1        0.0000
     21 C           4.5397   -2.3172   -1.7468 C.ar    1  UNL1        0.0000
     22 S           3.2562   -3.3947   -2.0803 S.2     1  UNL1        0.0000
     23 C           2.1245   -2.3792   -1.2846 C.ar    1  UNL1        0.0000
     24 C           2.6936   -1.2366   -0.7685 C.ar    1  UNL1        0.0000
     25 C           1.9952   -0.2040   -0.0526 C.ar    1  UNL1        0.0000
     26 C           0.6128   -0.0770    0.3014 C.ar    1  UNL1        0.0000
     27 SI         -0.8881   -1.1927   -0.0113 Si      1  UNL1        0.0000
     28 C          -4.4131    0.0511    0.0048 C.ar    1  UNL1        0.0000
     29 C          -4.1808    0.5585   -1.2235 C.2     1  UNL1        0.0000
     30 H          -5.8128   -0.1890   -3.3668 H       1  UNL1        0.0000
     31 H          -6.1207    2.1371   -2.4786 H       1  UNL1        0.0000
     32 H          -7.7623   -0.0903   -0.7349 H       1  UNL1        0.0000
     33 H          -7.2686   -0.9733    1.7830 H       1  UNL1        0.0000
     34 H          -5.5215   -1.3587    3.4779 H       1  UNL1        0.0000
     35 H          -3.1743   -0.8890    3.0497 H       1  UNL1        0.0000
     36 H          -1.7307    1.9200    1.8832 H       1  UNL1        0.0000
     37 H           0.6737    2.9228    1.9510 H       1  UNL1        0.0000
     38 H           3.0220    2.7553    1.3767 H       1  UNL1        0.0000
     39 H           6.9204    2.8437    0.6256 H       1  UNL1        0.0000
     40 H           8.1673    1.0721   -0.6125 H       1  UNL1        0.0000
     41 H           6.8965   -0.8861   -1.4373 H       1  UNL1        0.0000
     42 H           5.5312   -2.5723   -2.0919 H       1  UNL1        0.0000
     43 H           1.1077   -2.7282   -1.2685 H       1  UNL1        0.0000
     44 H          -0.7543   -2.4966    0.6897 H       1  UNL1        0.0000
     45 H          -1.1881   -1.3018   -1.4634 H       1  UNL1        0.0000
     46 H          -3.2349    0.8567   -1.6458 H       1  UNL1        0.0000
@<TRIPOS>BOND
     1     1     2    1
     2     2     3    2
     3     3     4   ar
     4     4     5   ar
     5     5     6   ar
     6     6     7   ar
     7     7     8    1
     8     8     9    2
     9     9    10    1
    10    10    11   ar
    11    11    12   ar
    12    12    13   ar
    13    13    14   ar
    14    14    15   ar
    15    15    16   ar
    16    16    17   ar
    17    17    18   ar
    18    18    19   ar
    19    19    20   ar
    20    20    21   ar
    21    21    22   ar
    22    22    23   ar
    23    23    24   ar
    24    24    25   ar
    25    25    26   ar
    26    26    27    1
    27     7    28   ar
    28    28    29    2
    29    29     1    1
    30    28     3   ar
    31    27     8    1
    32    26    10   ar
    33    25    13   ar
    34    19    14   ar
    35    24    20   ar
    36     1    30    1
    37     1    31    1
    38     2    32    1
    39     4    33    1
    40     5    34    1
    41     6    35    1
    42     9    36    1
    43    11    37    1
    44    12    38    1
    45    16    39    1
    46    17    40    1
    47    18    41    1
    48    21    42    1
    49    23    43    1
    50    27    44    1
    51    27    45    1
    52    29    46    1
