@<TRIPOS>MOLECULE
*****
 45 52 0 0 0
SMALL
GASTEIGER

@<TRIPOS>ATOM
      1 SI          5.2943    2.4358   -0.9273 Si      1  UNL1        0.0000
      2 C           6.3254    0.8766   -0.8914 C.2     1  UNL1        0.0000
      3 C           5.5880   -0.1716   -0.4804 C.ar    1  UNL1        0.0000
      4 C           6.0856   -1.5200   -0.3070 C.ar    1  UNL1        0.0000
      5 C           5.2412   -2.4671    0.1399 C.ar    1  UNL1        0.0000
      6 C           3.8392   -2.1802    0.4379 C.ar    1  UNL1        0.0000
      7 C           3.2832   -0.9524    0.2923 C.ar    1  UNL1        0.0000
      8 C           1.8914   -0.8344    0.5834 C.ar    1  UNL1        0.0000
      9 C           1.1268   -1.1563    1.6964 C.ar    1  UNL1        0.0000
     10 C          -0.2002   -0.8049    1.3473 C.ar    1  UNL1        0.0000
     11 N          -1.4882   -0.7917    1.8488 N.ar    1  UNL1        0.0000
     12 C          -2.3366   -0.2771    0.8827 C.ar    1  UNL1        0.0000
     13 C          -1.5243    0.0097   -0.1928 C.ar    1  UNL1        0.0000
     14 C          -2.0568    0.5556   -1.3701 C.ar    1  UNL1        0.0000
     15 C          -1.5070    0.9271   -2.5534 C.ar    1  UNL1        0.0000
     16 O          -2.5263    1.4019   -3.3422 O.2     1  UNL1        0.0000
     17 C          -3.6922    1.3095   -2.6181 C.ar    1  UNL1        0.0000
     18 C          -3.4470    0.7822   -1.3695 C.ar    1  UNL1        0.0000
     19 C          -4.3805    0.5286   -0.3290 C.ar    1  UNL1        0.0000
     20 C          -5.7854    0.7830   -0.3942 C.ar    1  UNL1        0.0000
     21 C          -6.6557    0.5081    0.6746 C.ar    1  UNL1        0.0000
     22 C          -6.0783   -0.0430    1.8462 C.ar    1  UNL1        0.0000
     23 N          -6.7514   -0.3678    2.9607 N.ar    1  UNL1        0.0000
     24 S          -5.6340   -0.9669    4.0298 S.2     1  UNL1        0.0000
     25 N          -4.2426   -0.8445    3.1337 N.ar    1  UNL1        0.0000
     26 C          -4.5933   -0.3224    1.9418 C.ar    1  UNL1        0.0000
     27 C          -3.7349   -0.0338    0.8431 C.ar    1  UNL1        0.0000
     28 C          -0.2036   -0.3084    0.0752 C.ar    1  UNL1        0.0000
     29 N           1.0729   -0.3295   -0.4051 N.ar    1  UNL1        0.0000
     30 C           4.1673    0.1307   -0.1714 C.ar    1  UNL1        0.0000
     31 C           3.8342    1.4287   -0.3328 C.2     1  UNL1        0.0000
     32 H           5.7421    3.4364    0.0709 H       1  UNL1        0.0000
     33 H           5.0951    2.9484   -2.3045 H       1  UNL1        0.0000
     34 H           7.3703    0.8808   -1.1567 H       1  UNL1        0.0000
     35 H           7.1231   -1.7437   -0.5269 H       1  UNL1        0.0000
     36 H           5.5828   -3.4871    0.2865 H       1  UNL1        0.0000
     37 H           3.2452   -3.0291    0.7677 H       1  UNL1        0.0000
     38 H           1.4850   -1.5759    2.6263 H       1  UNL1        0.0000
     39 H          -1.7494   -1.1094    2.7743 H       1  UNL1        0.0000
     40 H          -0.5219    0.9373   -2.9945 H       1  UNL1        0.0000
     41 H          -4.5740    1.6562   -3.1380 H       1  UNL1        0.0000
     42 H          -6.2132    1.2067   -1.3020 H       1  UNL1        0.0000
     43 H          -7.7197    0.7052    0.6137 H       1  UNL1        0.0000
     44 H           1.3432   -0.0234   -1.3303 H       1  UNL1        0.0000
     45 H           2.8801    1.8921   -0.1406 H       1  UNL1        0.0000
@<TRIPOS>BOND
     1     1     2    1
     2     2     3    2
     3     3     4   ar
     4     4     5   ar
     5     5     6   ar
     6     6     7   ar
     7     7     8    1
     8     8     9   ar
     9     9    10   ar
    10    10    11   ar
    11    11    12   ar
    12    12    13   ar
    13    13    14   ar
    14    14    15   ar
    15    15    16   ar
    16    16    17   ar
    17    17    18   ar
    18    18    19   ar
    19    19    20   ar
    20    20    21   ar
    21    21    22   ar
    22    22    23   ar
    23    23    24   ar
    24    24    25   ar
    25    25    26   ar
    26    26    27   ar
    27    13    28   ar
    28    28    29   ar
    29     7    30   ar
    30    30    31    2
    31    31     1    1
    32    30     3   ar
    33    29     8   ar
    34    28    10   ar
    35    27    12   ar
    36    18    14   ar
    37    27    19   ar
    38    26    22   ar
    39     1    32    1
    40     1    33    1
    41     2    34    1
    42     4    35    1
    43     5    36    1
    44     6    37    1
    45     9    38    1
    46    11    39    1
    47    15    40    1
    48    17    41    1
    49    20    42    1
    50    21    43    1
    51    29    44    1
    52    31    45    1
