@<TRIPOS>MOLECULE
*****
 51 58 0 0 0
SMALL
GASTEIGER

@<TRIPOS>ATOM
      1 SI          5.5503    1.6448   -2.6721 Si      1  UNL1        0.0000
      2 C           6.4985    0.1302   -2.1095 C.2     1  UNL1        0.0000
      3 C           5.7551   -0.6044   -1.2614 C.ar    1  UNL1        0.0000
      4 C           6.1764   -1.8406   -0.6342 C.ar    1  UNL1        0.0000
      5 C           5.3220   -2.4703    0.1939 C.ar    1  UNL1        0.0000
      6 C           3.9867   -1.9467    0.4780 C.ar    1  UNL1        0.0000
      7 C           3.5208   -0.7944   -0.0595 C.ar    1  UNL1        0.0000
      8 C           2.1610   -0.3797    0.2879 C.ar    1  UNL1        0.0000
      9 C           1.0027   -0.8629   -0.3645 C.ar    1  UNL1        0.0000
     10 C          -0.2831   -0.4022    0.0210 C.ar    1  UNL1        0.0000
     11 N          -1.5378   -0.7137   -0.4514 N.ar    1  UNL1        0.0000
     12 C          -2.5286   -0.0202    0.2216 C.ar    1  UNL1        0.0000
     13 C          -1.8906    0.7854    1.1804 C.ar    1  UNL1        0.0000
     14 C          -2.6785    1.6041    2.0120 C.ar    1  UNL1        0.0000
     15 C          -4.0747    1.6103    1.8804 C.ar    1  UNL1        0.0000
     16 C          -4.7286    0.8186    0.9354 C.ar    1  UNL1        0.0000
     17 C          -6.1681    0.8648    0.8437 C.ar    1  UNL1        0.0000
     18 C          -6.9520    0.1175   -0.0651 C.ar    1  UNL1        0.0000
     19 C          -6.1473   -0.6756   -0.8669 C.ar    1  UNL1        0.0000
     20 C          -6.6040   -1.5165   -1.8473 C.ar    1  UNL1        0.0000
     21 N          -5.4966   -2.1141   -2.4017 N.ar    1  UNL1        0.0000
     22 C          -4.3461   -1.6606   -1.7830 C.ar    1  UNL1        0.0000
     23 C          -4.7186   -0.7567   -0.8150 C.ar    1  UNL1        0.0000
     24 C          -3.9276   -0.0196    0.0832 C.ar    1  UNL1        0.0000
     25 C          -0.5218    0.5218    1.0228 C.ar    1  UNL1        0.0000
     26 C           0.6245    1.0336    1.7008 C.ar    1  UNL1        0.0000
     27 C           0.7390    1.9393    2.7123 C.ar    1  UNL1        0.0000
     28 N           2.0956    2.0375    2.9508 N.ar    1  UNL1        0.0000
     29 C           2.7963    1.2037    2.0976 C.ar    1  UNL1        0.0000
     30 C           1.8843    0.5549    1.2927 C.ar    1  UNL1        0.0000
     31 C           4.4028   -0.0657   -0.9757 C.ar    1  UNL1        0.0000
     32 C           4.1168    1.0870   -1.6145 C.2     1  UNL1        0.0000
     33 H           6.1676    2.9031   -2.1863 H       1  UNL1        0.0000
     34 H           5.2430    1.6050   -4.1227 H       1  UNL1        0.0000
     35 H           7.4999   -0.0726   -2.4526 H       1  UNL1        0.0000
     36 H           7.1643   -2.2368   -0.8378 H       1  UNL1        0.0000
     37 H           5.6069   -3.3976    0.6809 H       1  UNL1        0.0000
     38 H           3.3756   -2.5330    1.1599 H       1  UNL1        0.0000
     39 H           1.1033   -1.5876   -1.1689 H       1  UNL1        0.0000
     40 H          -1.7060   -1.3676   -1.1966 H       1  UNL1        0.0000
     41 H          -2.2148    2.2367    2.7614 H       1  UNL1        0.0000
     42 H          -4.6465    2.2573    2.5430 H       1  UNL1        0.0000
     43 H          -6.7065    1.5260    1.5254 H       1  UNL1        0.0000
     44 H          -8.0298    0.1746   -0.1086 H       1  UNL1        0.0000
     45 H          -7.5981   -1.7486   -2.2043 H       1  UNL1        0.0000
     46 H          -5.5200   -2.7892   -3.1549 H       1  UNL1        0.0000
     47 H          -3.3965   -2.0451   -2.1163 H       1  UNL1        0.0000
     48 H           0.0305    2.5191    3.2840 H       1  UNL1        0.0000
     49 H           2.5193    2.6337    3.6494 H       1  UNL1        0.0000
     50 H           3.8761    1.1568    2.1477 H       1  UNL1        0.0000
     51 H           3.2024    1.6561   -1.5543 H       1  UNL1        0.0000
@<TRIPOS>BOND
     1     1     2    1
     2     2     3    2
     3     3     4   ar
     4     4     5   ar
     5     5     6   ar
     6     6     7   ar
     7     7     8    1
     8     8     9   ar
     9     9    10   ar
    10    10    11   ar
    11    11    12   ar
    12    12    13   ar
    13    13    14   ar
    14    14    15   ar
    15    15    16   ar
    16    16    17   ar
    17    17    18   ar
    18    18    19   ar
    19    19    20   ar
    20    20    21   ar
    21    21    22   ar
    22    22    23   ar
    23    23    24   ar
    24    13    25   ar
    25    25    26   ar
    26    26    27   ar
    27    27    28   ar
    28    28    29   ar
    29    29    30   ar
    30     7    31   ar
    31    31    32    2
    32    32     1    1
    33    31     3   ar
    34    30     8   ar
    35    25    10   ar
    36    30    26   ar
    37    24    12   ar
    38    24    16   ar
    39    23    19   ar
    40     1    33    1
    41     1    34    1
    42     2    35    1
    43     4    36    1
    44     5    37    1
    45     6    38    1
    46     9    39    1
    47    11    40    1
    48    14    41    1
    49    15    42    1
    50    17    43    1
    51    18    44    1
    52    20    45    1
    53    21    46    1
    54    22    47    1
    55    27    48    1
    56    28    49    1
    57    29    50    1
    58    32    51    1
