@<TRIPOS>MOLECULE
*****
 49 56 0 0 0
SMALL
GASTEIGER

@<TRIPOS>ATOM
      1 SI         -5.7838   -1.4687    1.8160 Si      1  UNL1        0.0000
      2 C          -6.5691    0.1333    1.2450 C.2     1  UNL1        0.0000
      3 C          -5.6800    0.8784    0.5625 C.ar    1  UNL1        0.0000
      4 C          -5.9496    2.1759   -0.0228 C.ar    1  UNL1        0.0000
      5 C          -4.9590    2.8085   -0.6792 C.ar    1  UNL1        0.0000
      6 C          -3.6241    2.2283   -0.8179 C.ar    1  UNL1        0.0000
      7 C          -3.2935    1.0178   -0.3085 C.ar    1  UNL1        0.0000
      8 C          -1.9202    0.5496   -0.4975 C.ar    1  UNL1        0.0000
      9 C          -0.8375    0.9336    0.3325 C.ar    1  UNL1        0.0000
     10 C           0.4664    0.4244    0.0930 C.ar    1  UNL1        0.0000
     11 N           1.6663    0.6355    0.7411 N.ar    1  UNL1        0.0000
     12 C           2.6912   -0.0814    0.1501 C.ar    1  UNL1        0.0000
     13 C           2.1400   -0.7904   -0.9257 C.ar    1  UNL1        0.0000
     14 N           2.8608   -1.6052   -1.7351 N.ar    1  UNL1        0.0000
     15 C           4.1777   -1.6977   -1.4388 C.ar    1  UNL1        0.0000
     16 C           4.8519   -1.0511   -0.4039 C.ar    1  UNL1        0.0000
     17 C           6.2736   -1.2355   -0.1913 C.ar    1  UNL1        0.0000
     18 C           7.0297   -0.6169    0.8338 C.ar    1  UNL1        0.0000
     19 C           6.2161    0.1941    1.6101 C.ar    1  UNL1        0.0000
     20 C           6.6047    0.9439    2.6865 C.ar    1  UNL1        0.0000
     21 O           5.5210    1.6072    3.1897 O.2     1  UNL1        0.0000
     22 C           4.4370    1.2722    2.4223 C.ar    1  UNL1        0.0000
     23 C           4.8134    0.4009    1.4319 C.ar    1  UNL1        0.0000
     24 C           4.0547   -0.2032    0.4243 C.ar    1  UNL1        0.0000
     25 C           0.7858   -0.4566   -0.9268 C.ar    1  UNL1        0.0000
     26 C          -0.2773   -0.8642   -1.7760 C.ar    1  UNL1        0.0000
     27 C          -0.2813   -1.7072   -2.8446 C.ar    1  UNL1        0.0000
     28 N          -1.5920   -1.7238   -3.2733 N.ar    1  UNL1        0.0000
     29 C          -2.3713   -0.9013   -2.4747 C.ar    1  UNL1        0.0000
     30 C          -1.5555   -0.3431   -1.5133 C.ar    1  UNL1        0.0000
     31 C          -4.3288    0.2820    0.4232 C.ar    1  UNL1        0.0000
     32 C          -4.1911   -0.9256    1.0072 C.2     1  UNL1        0.0000
     33 H          -6.3875   -2.6534    1.1586 H       1  UNL1        0.0000
     34 H          -5.6788   -1.5446    3.2936 H       1  UNL1        0.0000
     35 H          -7.5976    0.3707    1.4629 H       1  UNL1        0.0000
     36 H          -6.9359    2.6144    0.0738 H       1  UNL1        0.0000
     37 H          -5.1285    3.7808   -1.1309 H       1  UNL1        0.0000
     38 H          -2.8971    2.8221   -1.3665 H       1  UNL1        0.0000
     39 H          -1.0137    1.6179    1.1591 H       1  UNL1        0.0000
     40 H           1.7685    1.2378    1.5422 H       1  UNL1        0.0000
     41 H           4.7194   -2.3604   -2.1117 H       1  UNL1        0.0000
     42 H           6.8118   -1.9014   -0.8695 H       1  UNL1        0.0000
     43 H           8.0905   -0.7719    0.9703 H       1  UNL1        0.0000
     44 H           7.5390    1.1176    3.2014 H       1  UNL1        0.0000
     45 H           3.5161    1.7416    2.7299 H       1  UNL1        0.0000
     46 H           0.4908   -2.2844   -3.3350 H       1  UNL1        0.0000
     47 H          -1.9368   -2.2596   -4.0586 H       1  UNL1        0.0000
     48 H          -3.4301   -0.7983   -2.6720 H       1  UNL1        0.0000
     49 H          -3.3066   -1.5429    1.0286 H       1  UNL1        0.0000
@<TRIPOS>BOND
     1     1     2    1
     2     2     3    2
     3     3     4   ar
     4     4     5   ar
     5     5     6   ar
     6     6     7   ar
     7     7     8    1
     8     8     9   ar
     9     9    10   ar
    10    10    11   ar
    11    11    12   ar
    12    12    13   ar
    13    13    14   ar
    14    14    15   ar
    15    15    16   ar
    16    16    17   ar
    17    17    18   ar
    18    18    19   ar
    19    19    20   ar
    20    20    21   ar
    21    21    22   ar
    22    22    23   ar
    23    23    24   ar
    24    13    25   ar
    25    25    26   ar
    26    26    27   ar
    27    27    28   ar
    28    28    29   ar
    29    29    30   ar
    30     7    31   ar
    31    31    32    2
    32    32     1    1
    33    31     3   ar
    34    30     8   ar
    35    25    10   ar
    36    30    26   ar
    37    24    12   ar
    38    24    16   ar
    39    23    19   ar
    40     1    33    1
    41     1    34    1
    42     2    35    1
    43     4    36    1
    44     5    37    1
    45     6    38    1
    46     9    39    1
    47    11    40    1
    48    15    41    1
    49    17    42    1
    50    18    43    1
    51    20    44    1
    52    22    45    1
    53    27    46    1
    54    28    47    1
    55    29    48    1
    56    32    49    1
