@<TRIPOS>MOLECULE
*****
 38 43 0 0 0
SMALL
GASTEIGER

@<TRIPOS>ATOM
      1 SI         -1.6106    0.8730   -1.1268 Si      1  UNL1        0.0000
      2 C          -2.5172   -0.4662   -0.1607 C.2     1  UNL1        0.0000
      3 C          -1.6868   -1.2714    0.5317 C.2     1  UNL1        0.0000
      4 C          -0.2638   -0.9200    0.3873 C.ar    1  UNL1        0.0000
      5 C           0.7869   -1.5892    1.0009 C.ar    1  UNL1        0.0000
      6 C           2.1109   -1.1615    0.7896 C.ar    1  UNL1        0.0000
      7 C           3.1671   -1.8349    1.4068 C.ar    1  UNL1        0.0000
      8 C           4.4800   -1.4210    1.2052 C.ar    1  UNL1        0.0000
      9 C           4.7598   -0.3238    0.3811 C.ar    1  UNL1        0.0000
     10 C           6.0834    0.0917    0.1793 C.ar    1  UNL1        0.0000
     11 C           6.3540    1.1793   -0.6382 C.ar    1  UNL1        0.0000
     12 C           5.2854    1.8180   -1.2292 C.ar    1  UNL1        0.0000
     13 N           3.9986    1.4456   -1.0571 N.ar    1  UNL1        0.0000
     14 C           3.7177    0.3838   -0.2612 C.ar    1  UNL1        0.0000
     15 C           2.3884   -0.0437   -0.0512 C.ar    1  UNL1        0.0000
     16 C           1.3025    0.6193   -0.6643 C.ar    1  UNL1        0.0000
     17 C          -0.0018    0.1843   -0.4457 C.ar    1  UNL1        0.0000
     18 C          -3.9233   -0.6026   -0.1926 C.ar    1  UNL1        0.0000
     19 S          -4.6650   -2.0788   -0.7379 S.2     1  UNL1        0.0000
     20 C          -6.2666   -1.4890   -0.5219 C.ar    1  UNL1        0.0000
     21 C          -6.2418   -0.2131   -0.0416 C.ar    1  UNL1        0.0000
     22 S          -7.5824    0.9104    0.3864 S.2     1  UNL1        0.0000
     23 C          -6.2995    2.0284    0.8265 C.ar    1  UNL1        0.0000
     24 C          -4.9890    1.5680    0.6517 C.ar    1  UNL1        0.0000
     25 C          -4.9363    0.2462    0.1296 C.ar    1  UNL1        0.0000
     26 H          -1.9043    2.2386   -0.6156 H       1  UNL1        0.0000
     27 H          -1.7274    0.7068   -2.5988 H       1  UNL1        0.0000
     28 H          -1.9964   -2.1048    1.1488 H       1  UNL1        0.0000
     29 H           0.5785   -2.4419    1.6422 H       1  UNL1        0.0000
     30 H           2.9789   -2.6905    2.0520 H       1  UNL1        0.0000
     31 H           5.2840   -1.9635    1.6978 H       1  UNL1        0.0000
     32 H           6.9087   -0.4299    0.6577 H       1  UNL1        0.0000
     33 H           7.3693    1.5175   -0.8084 H       1  UNL1        0.0000
     34 H           5.4342    2.6753   -1.8795 H       1  UNL1        0.0000
     35 H           1.4907    1.4750   -1.3116 H       1  UNL1        0.0000
     36 H          -7.1398   -2.0858   -0.7458 H       1  UNL1        0.0000
     37 H          -6.5992    2.9955    1.2068 H       1  UNL1        0.0000
     38 H          -4.1277    2.1747    0.9034 H       1  UNL1        0.0000
@<TRIPOS>BOND
     1     1     2    1
     2     2     3    2
     3     3     4    1
     4     4     5   ar
     5     5     6   ar
     6     6     7   ar
     7     7     8   ar
     8     8     9   ar
     9     9    10   ar
    10    10    11   ar
    11    11    12   ar
    12    12    13   ar
    13    13    14   ar
    14    14    15   ar
    15    15    16   ar
    16    16    17   ar
    17     2    18    1
    18    18    19   ar
    19    19    20   ar
    20    20    21   ar
    21    21    22   ar
    22    22    23   ar
    23    23    24   ar
    24    24    25   ar
    25    17     1    1
    26    25    18   ar
    27    17     4   ar
    28    25    21   ar
    29    15     6   ar
    30    14     9   ar
    31     1    26    1
    32     1    27    1
    33     3    28    1
    34     5    29    1
    35     7    30    1
    36     8    31    1
    37    10    32    1
    38    11    33    1
    39    12    34    1
    40    16    35    1
    41    20    36    1
    42    23    37    1
    43    24    38    1
