@<TRIPOS>MOLECULE
*****
 40 46 0 0 0
SMALL
GASTEIGER

@<TRIPOS>ATOM
      1 SI         -5.8929    2.1452    0.5599 Si      1  UNL1        0.0000
      2 C          -6.5470    0.4294    0.2257 C.2     1  UNL1        0.0000
      3 C          -5.5354   -0.4439    0.0661 C.ar    1  UNL1        0.0000
      4 C          -5.6997   -1.8471   -0.2483 C.ar    1  UNL1        0.0000
      5 C          -4.6004   -2.6026   -0.4176 C.ar    1  UNL1        0.0000
      6 C          -3.2538   -2.0552   -0.2724 C.ar    1  UNL1        0.0000
      7 C          -3.0006   -0.7589    0.0383 C.ar    1  UNL1        0.0000
      8 C          -1.6158   -0.3963    0.1932 C.ar    1  UNL1        0.0000
      9 C          -1.0433    0.4623    1.1581 C.ar    1  UNL1        0.0000
     10 C           0.3350    0.4649    0.8774 C.ar    1  UNL1        0.0000
     11 N           1.6055    0.9054    1.1755 N.ar    1  UNL1        0.0000
     12 C           2.5067    0.3431    0.3048 C.ar    1  UNL1        0.0000
     13 C           1.7603   -0.4331   -0.5142 C.ar    1  UNL1        0.0000
     14 O           2.4004   -1.1206   -1.4804 O.2     1  UNL1        0.0000
     15 C           3.7185   -0.7391   -1.2613 C.ar    1  UNL1        0.0000
     16 C           4.8646   -1.1461   -1.9806 C.ar    1  UNL1        0.0000
     17 C           6.1455   -0.6485   -1.6094 C.ar    1  UNL1        0.0000
     18 C           6.1129    0.2291   -0.5200 C.ar    1  UNL1        0.0000
     19 C           7.1824    0.8649    0.0626 C.ar    1  UNL1        0.0000
     20 O           6.7541    1.6490    1.1118 O.2     1  UNL1        0.0000
     21 C           5.3872    1.5159    1.2061 C.ar    1  UNL1        0.0000
     22 C           5.0030    0.6626    0.2253 C.ar    1  UNL1        0.0000
     23 C           3.7760    0.1382   -0.1904 C.ar    1  UNL1        0.0000
     24 C           0.4867   -0.3500   -0.1705 C.ar    1  UNL1        0.0000
     25 O          -0.6147   -0.9238   -0.6410 O.2     1  UNL1        0.0000
     26 C          -4.1683    0.1257    0.2028 C.ar    1  UNL1        0.0000
     27 C          -4.1564    1.4547    0.4395 C.2     1  UNL1        0.0000
     28 H          -6.2003    3.0975   -0.5339 H       1  UNL1        0.0000
     29 H          -6.2113    2.6191    1.9285 H       1  UNL1        0.0000
     30 H          -7.6039    0.2277    0.1571 H       1  UNL1        0.0000
     31 H          -6.6948   -2.2630   -0.3562 H       1  UNL1        0.0000
     32 H          -4.6858   -3.6568   -0.6632 H       1  UNL1        0.0000
     33 H          -2.4418   -2.7664   -0.4099 H       1  UNL1        0.0000
     34 H          -1.5739    0.9822    1.9422 H       1  UNL1        0.0000
     35 H           1.8386    1.5418    1.9261 H       1  UNL1        0.0000
     36 H           4.7617   -1.8365   -2.8126 H       1  UNL1        0.0000
     37 H           7.0473   -0.9363   -2.1353 H       1  UNL1        0.0000
     38 H           8.2482    0.8826   -0.1172 H       1  UNL1        0.0000
     39 H           4.9086    2.0795    1.9926 H       1  UNL1        0.0000
     40 H          -3.3030    2.1037    0.5406 H       1  UNL1        0.0000
@<TRIPOS>BOND
     1     1     2    1
     2     2     3    2
     3     3     4   ar
     4     4     5   ar
     5     5     6   ar
     6     6     7   ar
     7     7     8    1
     8     8     9   ar
     9     9    10   ar
    10    10    11   ar
    11    11    12   ar
    12    12    13   ar
    13    13    14   ar
    14    14    15   ar
    15    15    16   ar
    16    16    17   ar
    17    17    18   ar
    18    18    19   ar
    19    19    20   ar
    20    20    21   ar
    21    21    22   ar
    22    22    23   ar
    23    13    24   ar
    24    24    25   ar
    25     7    26   ar
    26    26    27    2
    27    27     1    1
    28    26     3   ar
    29    25     8   ar
    30    24    10   ar
    31    23    12   ar
    32    23    15   ar
    33    22    18   ar
    34     1    28    1
    35     1    29    1
    36     2    30    1
    37     4    31    1
    38     5    32    1
    39     6    33    1
    40     9    34    1
    41    11    35    1
    42    16    36    1
    43    17    37    1
    44    19    38    1
    45    21    39    1
    46    27    40    1
