@<TRIPOS>MOLECULE
*****
 43 49 0 0 0
SMALL
GASTEIGER

@<TRIPOS>ATOM
      1 SI         -4.5734    2.6912    0.0787 Si      1  UNL1        0.0000
      2 C          -5.4762    1.1860    0.7339 C.2     1  UNL1        0.0000
      3 C          -4.6363    0.1399    0.8408 C.ar    1  UNL1        0.0000
      4 C          -5.0003   -1.1814    1.3108 C.ar    1  UNL1        0.0000
      5 C          -4.0515   -2.1351    1.3617 C.ar    1  UNL1        0.0000
      6 C          -2.6696   -1.8792    0.9591 C.ar    1  UNL1        0.0000
      7 C          -2.2489   -0.6731    0.5082 C.ar    1  UNL1        0.0000
      8 C          -0.8233   -0.5302    0.1307 C.ar    1  UNL1        0.0000
      9 C           0.0669   -0.1686    1.1600 C.ar    1  UNL1        0.0000
     10 C           1.4228   -0.0137    0.8567 C.ar    1  UNL1        0.0000
     11 N           2.4610    0.3331    1.7066 N.ar    1  UNL1        0.0000
     12 C           3.5635    0.3488    0.9380 C.ar    1  UNL1        0.0000
     13 C           4.8456    0.6324    1.3034 C.ar    1  UNL1        0.0000
     14 S           5.4071    1.0444    2.8320 S.2     1  UNL1        0.0000
     15 C           6.9969    1.1547    2.1379 C.ar    1  UNL1        0.0000
     16 C           7.0601    0.8791    0.7783 C.ar    1  UNL1        0.0000
     17 C           5.7622    0.5675    0.2915 C.ar    1  UNL1        0.0000
     18 S           4.8583    0.1246   -1.1223 S.2     1  UNL1        0.0000
     19 C           3.3167    0.0364   -0.3590 C.ar    1  UNL1        0.0000
     20 C           1.9130   -0.2093   -0.4540 C.ar    1  UNL1        0.0000
     21 C           1.0089   -0.5702   -1.4918 C.ar    1  UNL1        0.0000
     22 C           1.4876   -0.7647   -2.8056 C.ar    1  UNL1        0.0000
     23 C           0.6153   -1.1149   -3.8342 C.ar    1  UNL1        0.0000
     24 C          -0.7388   -1.2745   -3.5677 C.ar    1  UNL1        0.0000
     25 C          -1.2244   -1.0854   -2.2709 C.ar    1  UNL1        0.0000
     26 C          -0.3714   -0.7308   -1.1992 C.ar    1  UNL1        0.0000
     27 C          -3.2364    0.4080    0.4311 C.ar    1  UNL1        0.0000
     28 C          -3.0113    1.6684    0.0085 C.2     1  UNL1        0.0000
     29 H          -4.4980    3.7799    1.0832 H       1  UNL1        0.0000
     30 H          -5.0564    3.0934   -1.2645 H       1  UNL1        0.0000
     31 H          -6.5267    1.2143    0.9733 H       1  UNL1        0.0000
     32 H          -6.0221   -1.3820    1.6109 H       1  UNL1        0.0000
     33 H          -4.2922   -3.1355    1.7078 H       1  UNL1        0.0000
     34 H          -1.9829   -2.7187    1.0360 H       1  UNL1        0.0000
     35 H          -0.2972   -0.0100    2.1720 H       1  UNL1        0.0000
     36 H           2.4238    0.5361    2.6977 H       1  UNL1        0.0000
     37 H           7.8197    1.4238    2.7867 H       1  UNL1        0.0000
     38 H           7.9664    0.9010    0.1878 H       1  UNL1        0.0000
     39 H           2.5419   -0.6447   -3.0393 H       1  UNL1        0.0000
     40 H           0.9943   -1.2617   -4.8420 H       1  UNL1        0.0000
     41 H          -1.4236   -1.5462   -4.3668 H       1  UNL1        0.0000
     42 H          -2.2919   -1.2178   -2.1035 H       1  UNL1        0.0000
     43 H          -2.0792    2.0851   -0.3396 H       1  UNL1        0.0000
@<TRIPOS>BOND
     1     1     2    1
     2     2     3    2
     3     3     4   ar
     4     4     5   ar
     5     5     6   ar
     6     6     7   ar
     7     7     8    1
     8     8     9   ar
     9     9    10   ar
    10    10    11   ar
    11    11    12   ar
    12    12    13   ar
    13    13    14   ar
    14    14    15   ar
    15    15    16   ar
    16    16    17   ar
    17    17    18   ar
    18    18    19   ar
    19    19    20   ar
    20    20    21   ar
    21    21    22   ar
    22    22    23   ar
    23    23    24   ar
    24    24    25   ar
    25    25    26   ar
    26     7    27   ar
    27    27    28    2
    28    28     1    1
    29    27     3   ar
    30    26     8   ar
    31    20    10   ar
    32    26    21   ar
    33    19    12   ar
    34    17    13   ar
    35     1    29    1
    36     1    30    1
    37     2    31    1
    38     4    32    1
    39     5    33    1
    40     6    34    1
    41     9    35    1
    42    11    36    1
    43    15    37    1
    44    16    38    1
    45    22    39    1
    46    23    40    1
    47    24    41    1
    48    25    42    1
    49    28    43    1
