@<TRIPOS>MOLECULE
*****
 37 42 0 0 0
SMALL
GASTEIGER

@<TRIPOS>ATOM
      1 SI         -4.0188    1.4291    2.0834 Si      1  UNL1        0.0000
      2 C          -4.9732    0.5169    0.7552 C.2     1  UNL1        0.0000
      3 C          -4.1314   -0.0525   -0.1270 C.ar    1  UNL1        0.0000
      4 C          -4.5312   -0.8306   -1.2816 C.ar    1  UNL1        0.0000
      5 C          -3.5758   -1.3381   -2.0827 C.ar    1  UNL1        0.0000
      6 C          -2.1522   -1.1302   -1.8226 C.ar    1  UNL1        0.0000
      7 C          -1.6956   -0.4240   -0.7612 C.ar    1  UNL1        0.0000
      8 C          -0.2470   -0.2818   -0.6090 C.ar    1  UNL1        0.0000
      9 C           0.5380    0.6413   -1.3567 C.ar    1  UNL1        0.0000
     10 C           1.9371    0.7257   -1.1391 C.ar    1  UNL1        0.0000
     11 N           2.9263    1.5054   -1.6977 N.ar    1  UNL1        0.0000
     12 C           4.1450    1.1826   -1.1129 C.ar    1  UNL1        0.0000
     13 C           5.4982    1.5995   -1.2332 C.ar    1  UNL1        0.0000
     14 C           6.2860    0.8867   -0.3536 C.ar    1  UNL1        0.0000
     15 S           5.4278   -0.2608    0.6006 S.2     1  UNL1        0.0000
     16 C           3.9552    0.1964   -0.1743 C.ar    1  UNL1        0.0000
     17 C           2.5874   -0.0612   -0.2155 C.ar    1  UNL1        0.0000
     18 C           1.8725   -0.9927    0.5593 C.ar    1  UNL1        0.0000
     19 C           2.2212   -1.8824    1.5226 C.ar    1  UNL1        0.0000
     20 O           1.0724   -2.5266    1.9168 O.2     1  UNL1        0.0000
     21 C           0.0316   -2.0127    1.1779 C.ar    1  UNL1        0.0000
     22 C           0.4885   -1.0446    0.3127 C.ar    1  UNL1        0.0000
     23 C          -2.6889    0.1623    0.1441 C.ar    1  UNL1        0.0000
     24 C          -2.4342    0.9056    1.2401 C.2     1  UNL1        0.0000
     25 H          -4.2372    2.8949    2.0246 H       1  UNL1        0.0000
     26 H          -4.1859    0.8100    3.4204 H       1  UNL1        0.0000
     27 H          -6.0508    0.4883    0.7495 H       1  UNL1        0.0000
     28 H          -5.5839   -0.9918   -1.4825 H       1  UNL1        0.0000
     29 H          -3.8425   -1.9265   -2.9552 H       1  UNL1        0.0000
     30 H          -1.4655   -1.5871   -2.5312 H       1  UNL1        0.0000
     31 H           0.0584    1.2853   -2.0903 H       1  UNL1        0.0000
     32 H           2.8211    2.2087   -2.4173 H       1  UNL1        0.0000
     33 H           5.8710    2.3596   -1.9073 H       1  UNL1        0.0000
     34 H           7.3545    0.9789   -0.2131 H       1  UNL1        0.0000
     35 H           3.1304   -2.1848    2.0208 H       1  UNL1        0.0000
     36 H          -0.9384   -2.4393    1.3932 H       1  UNL1        0.0000
     37 H          -1.4702    1.1906    1.6307 H       1  UNL1        0.0000
@<TRIPOS>BOND
     1     1     2    1
     2     2     3    2
     3     3     4   ar
     4     4     5   ar
     5     5     6   ar
     6     6     7   ar
     7     7     8    1
     8     8     9   ar
     9     9    10   ar
    10    10    11   ar
    11    11    12   ar
    12    12    13   ar
    13    13    14   ar
    14    14    15   ar
    15    15    16   ar
    16    16    17   ar
    17    17    18   ar
    18    18    19   ar
    19    19    20   ar
    20    20    21   ar
    21    21    22   ar
    22     7    23   ar
    23    23    24    2
    24    24     1    1
    25    23     3   ar
    26    22     8   ar
    27    17    10   ar
    28    22    18   ar
    29    16    12   ar
    30     1    25    1
    31     1    26    1
    32     2    27    1
    33     4    28    1
    34     5    29    1
    35     6    30    1
    36     9    31    1
    37    11    32    1
    38    13    33    1
    39    14    34    1
    40    19    35    1
    41    21    36    1
    42    24    37    1
