@<TRIPOS>MOLECULE
*****
 46 52 0 0 0
SMALL
GASTEIGER

@<TRIPOS>ATOM
      1 SI          4.8821    0.9910    2.4416 Si      1  UNL1        0.0000
      2 C           5.7987    0.8846    0.8115 C.2     1  UNL1        0.0000
      3 C           4.9560    0.5520   -0.1838 C.ar    1  UNL1        0.0000
      4 C           5.3274    0.3847   -1.5742 C.ar    1  UNL1        0.0000
      5 C           4.3731    0.0523   -2.4636 C.ar    1  UNL1        0.0000
      6 C           2.9786   -0.1439   -2.0706 C.ar    1  UNL1        0.0000
      7 C           2.5520   -0.0171   -0.7916 C.ar    1  UNL1        0.0000
      8 C           1.1302   -0.2224   -0.5241 C.ar    1  UNL1        0.0000
      9 C           0.1421    0.7620   -0.6559 C.ar    1  UNL1        0.0000
     10 C          -1.2624    0.5293   -0.3674 C.ar    1  UNL1        0.0000
     11 C          -2.2350    1.5444   -0.4981 C.ar    1  UNL1        0.0000
     12 C          -2.0241    2.8474   -0.8911 C.ar    1  UNL1        0.0000
     13 N          -3.2407    3.4903   -0.8769 N.ar    1  UNL1        0.0000
     14 C          -4.2277    2.6179   -0.4814 C.ar    1  UNL1        0.0000
     15 C          -3.6296    1.4023   -0.2392 C.ar    1  UNL1        0.0000
     16 C          -4.2716    0.2186    0.1821 C.ar    1  UNL1        0.0000
     17 C          -5.6576    0.1008    0.4221 C.ar    1  UNL1        0.0000
     18 C          -6.1402   -1.1270    0.8125 C.ar    1  UNL1        0.0000
     19 N          -5.3585   -2.2078    0.9665 N.ar    1  UNL1        0.0000
     20 C          -4.0243   -2.0488    0.7246 C.ar    1  UNL1        0.0000
     21 C          -3.3618   -0.8722    0.3370 C.ar    1  UNL1        0.0000
     22 C          -1.8826   -0.7236    0.0876 C.ar    1  UNL1        0.0000
     23 C          -0.8063   -1.6729    0.2216 C.ar    1  UNL1        0.0000
     24 C          -0.8604   -2.9742    0.6718 C.ar    1  UNL1        0.0000
     25 N           0.4124   -3.5076    0.6340 N.ar    1  UNL1        0.0000
     26 C           1.3020   -2.5691    0.1852 C.ar    1  UNL1        0.0000
     27 C           0.5878   -1.4227   -0.0691 C.ar    1  UNL1        0.0000
     28 C           3.5436    0.3515    0.2229 C.ar    1  UNL1        0.0000
     29 C           3.3121    0.5359    1.5385 C.2     1  UNL1        0.0000
     30 H           5.3172   -0.0564    3.3975 H       1  UNL1        0.0000
     31 H           4.8543    2.3730    2.9793 H       1  UNL1        0.0000
     32 H           6.8572    1.0757    0.7419 H       1  UNL1        0.0000
     33 H           6.3583    0.5280   -1.8759 H       1  UNL1        0.0000
     34 H           4.6181   -0.0810   -3.5127 H       1  UNL1        0.0000
     35 H           2.2878   -0.4077   -2.8678 H       1  UNL1        0.0000
     36 H           0.4590    1.7492   -0.9874 H       1  UNL1        0.0000
     37 H          -1.1342    3.3894   -1.1795 H       1  UNL1        0.0000
     38 H          -3.3865    4.4613   -1.1219 H       1  UNL1        0.0000
     39 H          -5.2528    2.9546   -0.4148 H       1  UNL1        0.0000
     40 H          -6.3336    0.9380    0.3045 H       1  UNL1        0.0000
     41 H          -7.1960   -1.2808    1.0123 H       1  UNL1        0.0000
     42 H          -3.4939   -2.9797    0.8531 H       1  UNL1        0.0000
     43 H          -1.6488   -3.6108    1.0341 H       1  UNL1        0.0000
     44 H           0.6531   -4.4505    0.9113 H       1  UNL1        0.0000
     45 H           2.3557   -2.8002    0.0985 H       1  UNL1        0.0000
     46 H           2.3698    0.4424    2.0551 H       1  UNL1        0.0000
@<TRIPOS>BOND
     1     1     2    1
     2     2     3    2
     3     3     4   ar
     4     4     5   ar
     5     5     6   ar
     6     6     7   ar
     7     7     8    1
     8     8     9   ar
     9     9    10   ar
    10    10    11   ar
    11    11    12   ar
    12    12    13   ar
    13    13    14   ar
    14    14    15   ar
    15    15    16   ar
    16    16    17   ar
    17    17    18   ar
    18    18    19   ar
    19    19    20   ar
    20    20    21   ar
    21    21    22   ar
    22    22    23   ar
    23    23    24   ar
    24    24    25   ar
    25    25    26   ar
    26    26    27   ar
    27     7    28   ar
    28    28    29    2
    29    29     1    1
    30    28     3   ar
    31    27     8   ar
    32    22    10   ar
    33    27    23   ar
    34    15    11   ar
    35    21    16   ar
    36     1    30    1
    37     1    31    1
    38     2    32    1
    39     4    33    1
    40     5    34    1
    41     6    35    1
    42     9    36    1
    43    12    37    1
    44    13    38    1
    45    14    39    1
    46    17    40    1
    47    18    41    1
    48    20    42    1
    49    24    43    1
    50    25    44    1
    51    26    45    1
    52    29    46    1
