@<TRIPOS>MOLECULE
*****
 44 50 0 0 0
SMALL
GASTEIGER

@<TRIPOS>ATOM
      1 SI          5.5267    1.6863   -2.1006 Si      1  UNL1        0.0000
      2 C           6.5424    0.9352   -0.7193 C.2     1  UNL1        0.0000
      3 C           5.7502    0.2871    0.1544 C.ar    1  UNL1        0.0000
      4 C           6.2098   -0.4126    1.3361 C.ar    1  UNL1        0.0000
      5 C           5.3026   -1.0250    2.1189 C.ar    1  UNL1        0.0000
      6 C           3.8726   -1.0024    1.8152 C.ar    1  UNL1        0.0000
      7 C           3.3557   -0.3647    0.7360 C.ar    1  UNL1        0.0000
      8 C           1.9376   -0.4223    0.5589 C.ar    1  UNL1        0.0000
      9 C           1.1673   -1.4713    0.0904 C.ar    1  UNL1        0.0000
     10 C          -0.1875   -1.1071    0.0721 C.ar    1  UNL1        0.0000
     11 C          -1.2654   -1.9229   -0.3494 C.ar    1  UNL1        0.0000
     12 C          -1.2374   -3.1985   -0.8161 C.ar    1  UNL1        0.0000
     13 O          -2.5265   -3.5544   -1.0921 O.2     1  UNL1        0.0000
     14 C          -3.3240   -2.4785   -0.7860 C.ar    1  UNL1        0.0000
     15 C          -2.5795   -1.4176   -0.3115 C.ar    1  UNL1        0.0000
     16 C          -3.0256   -0.1253    0.1135 C.ar    1  UNL1        0.0000
     17 C          -1.8879    0.6436    0.5239 C.ar    1  UNL1        0.0000
     18 C          -2.1299    1.9401    0.9728 C.ar    1  UNL1        0.0000
     19 N          -3.3485    2.5165    1.0469 N.ar    1  UNL1        0.0000
     20 C          -4.4174    1.8086    0.6670 C.ar    1  UNL1        0.0000
     21 C          -5.6457    2.4478    0.7635 C.ar    1  UNL1        0.0000
     22 C          -6.8365    1.8236    0.4008 C.ar    1  UNL1        0.0000
     23 C          -6.7997    0.5245   -0.0717 C.ar    1  UNL1        0.0000
     24 C          -5.5735   -0.1366   -0.1765 C.ar    1  UNL1        0.0000
     25 C          -4.3469    0.4786    0.1868 C.ar    1  UNL1        0.0000
     26 C          -0.5221    0.1640    0.5013 C.ar    1  UNL1        0.0000
     27 S           0.9628    0.9456    0.9547 S.2     1  UNL1        0.0000
     28 C           4.3006    0.3151   -0.1611 C.ar    1  UNL1        0.0000
     29 C           3.9932    0.9848   -1.2912 C.2     1  UNL1        0.0000
     30 H           5.8115    1.0579   -3.4131 H       1  UNL1        0.0000
     31 H           5.5545    3.1686   -2.0794 H       1  UNL1        0.0000
     32 H           7.6149    1.0388   -0.6835 H       1  UNL1        0.0000
     33 H           7.2677   -0.4331    1.5714 H       1  UNL1        0.0000
     34 H           5.6148   -1.5568    3.0127 H       1  UNL1        0.0000
     35 H           3.2309   -1.5252    2.5205 H       1  UNL1        0.0000
     36 H           1.5852   -2.4223   -0.2158 H       1  UNL1        0.0000
     37 H          -0.4835   -3.9481   -1.0076 H       1  UNL1        0.0000
     38 H          -4.3676   -2.6693   -0.9740 H       1  UNL1        0.0000
     39 H          -1.3298    2.5970    1.3043 H       1  UNL1        0.0000
     40 H          -5.6756    3.4701    1.1354 H       1  UNL1        0.0000
     41 H          -7.7802    2.3542    0.4895 H       1  UNL1        0.0000
     42 H          -7.7188    0.0203   -0.3597 H       1  UNL1        0.0000
     43 H          -5.6078   -1.1492   -0.5515 H       1  UNL1        0.0000
     44 H           3.0160    1.1349   -1.7215 H       1  UNL1        0.0000
@<TRIPOS>BOND
     1     1     2    1
     2     2     3    2
     3     3     4   ar
     4     4     5   ar
     5     5     6   ar
     6     6     7   ar
     7     7     8    1
     8     8     9   ar
     9     9    10   ar
    10    10    11   ar
    11    11    12   ar
    12    12    13   ar
    13    13    14   ar
    14    14    15   ar
    15    15    16   ar
    16    16    17   ar
    17    17    18   ar
    18    18    19   ar
    19    19    20   ar
    20    20    21   ar
    21    21    22   ar
    22    22    23   ar
    23    23    24   ar
    24    24    25   ar
    25    17    26   ar
    26    26    27   ar
    27     7    28   ar
    28    28    29    2
    29    29     1    1
    30    28     3   ar
    31    27     8   ar
    32    26    10   ar
    33    15    11   ar
    34    25    16   ar
    35    25    20   ar
    36     1    30    1
    37     1    31    1
    38     2    32    1
    39     4    33    1
    40     5    34    1
    41     6    35    1
    42     9    36    1
    43    12    37    1
    44    14    38    1
    45    18    39    1
    46    21    40    1
    47    22    41    1
    48    23    42    1
    49    24    43    1
    50    29    44    1
