@<TRIPOS>MOLECULE
*****
 40 46 0 0 0
SMALL
GASTEIGER

@<TRIPOS>ATOM
      1 SI         -4.4857   -1.7724   -2.3556 Si      1  UNL1        0.0000
      2 C          -5.6070   -0.9819   -1.0859 C.2     1  UNL1        0.0000
      3 C          -4.9020   -0.1954   -0.2519 C.ar    1  UNL1        0.0000
      4 C          -5.4678    0.5911    0.8237 C.ar    1  UNL1        0.0000
      5 C          -4.6469    1.3590    1.5626 C.ar    1  UNL1        0.0000
      6 C          -3.2056    1.4088    1.3242 C.ar    1  UNL1        0.0000
      7 C          -2.5870    0.6964    0.3507 C.ar    1  UNL1        0.0000
      8 C          -1.1693    0.8147    0.2668 C.ar    1  UNL1        0.0000
      9 C          -0.2984    1.8974    0.1741 C.ar    1  UNL1        0.0000
     10 C           0.9796    1.3427    0.1421 C.ar    1  UNL1        0.0000
     11 C           2.2802    1.9286    0.0462 C.ar    1  UNL1        0.0000
     12 C           2.5052    3.2745   -0.0407 C.ar    1  UNL1        0.0000
     13 S           4.2078    3.5768   -0.1398 S.2     1  UNL1        0.0000
     14 C           4.6038    1.8914   -0.0642 C.ar    1  UNL1        0.0000
     15 C           3.4585    1.1495    0.0328 C.ar    1  UNL1        0.0000
     16 C           3.3861   -0.2692    0.1159 C.ar    1  UNL1        0.0000
     17 C           4.4587   -1.1451    0.1130 C.ar    1  UNL1        0.0000
     18 O           5.8164   -1.0576    0.0424 O.2     1  UNL1        0.0000
     19 C           6.2530   -2.3455    0.0937 C.ar    1  UNL1        0.0000
     20 C           5.2301   -3.2574    0.1942 C.ar    1  UNL1        0.0000
     21 C           4.0653   -2.4496    0.2051 C.ar    1  UNL1        0.0000
     22 S           2.3164   -2.5929    0.2973 S.2     1  UNL1        0.0000
     23 C           2.1782   -0.8987    0.2097 C.ar    1  UNL1        0.0000
     24 C           0.9068   -0.0234    0.2221 C.ar    1  UNL1        0.0000
     25 N          -0.4136   -0.3487    0.3065 N.ar    1  UNL1        0.0000
     26 C          -3.4401   -0.1435   -0.5074 C.ar    1  UNL1        0.0000
     27 C          -3.0405   -0.8851   -1.5621 C.2     1  UNL1        0.0000
     28 H          -4.7596   -1.2957   -3.7323 H       1  UNL1        0.0000
     29 H          -4.3945   -3.2433   -2.1906 H       1  UNL1        0.0000
     30 H          -6.6713   -1.1540   -1.0834 H       1  UNL1        0.0000
     31 H          -6.5351    0.5599    1.0102 H       1  UNL1        0.0000
     32 H          -5.0392    1.9658    2.3730 H       1  UNL1        0.0000
     33 H          -2.6399    2.0440    2.0017 H       1  UNL1        0.0000
     34 H          -0.5876    2.9384    0.1281 H       1  UNL1        0.0000
     35 H           1.8041    4.0968   -0.0538 H       1  UNL1        0.0000
     36 H           5.6377    1.5765   -0.0965 H       1  UNL1        0.0000
     37 H           7.3287   -2.4552    0.0481 H       1  UNL1        0.0000
     38 H           5.3079   -4.3326    0.2510 H       1  UNL1        0.0000
     39 H          -0.7883   -1.2845    0.3890 H       1  UNL1        0.0000
     40 H          -2.0448   -0.9809   -1.9639 H       1  UNL1        0.0000
@<TRIPOS>BOND
     1     1     2    1
     2     2     3    2
     3     3     4   ar
     4     4     5   ar
     5     5     6   ar
     6     6     7   ar
     7     7     8    1
     8     8     9   ar
     9     9    10   ar
    10    10    11   ar
    11    11    12   ar
    12    12    13   ar
    13    13    14   ar
    14    14    15   ar
    15    15    16   ar
    16    16    17   ar
    17    17    18   ar
    18    18    19   ar
    19    19    20   ar
    20    20    21   ar
    21    21    22   ar
    22    22    23   ar
    23    23    24   ar
    24    24    25   ar
    25     7    26   ar
    26    26    27    2
    27    27     1    1
    28    26     3   ar
    29    25     8   ar
    30    24    10   ar
    31    15    11   ar
    32    23    16   ar
    33    21    17   ar
    34     1    28    1
    35     1    29    1
    36     2    30    1
    37     4    31    1
    38     5    32    1
    39     6    33    1
    40     9    34    1
    41    12    35    1
    42    14    36    1
    43    19    37    1
    44    20    38    1
    45    25    39    1
    46    27    40    1
