@<TRIPOS>MOLECULE
*****
 44 50 0 0 0
SMALL
GASTEIGER

@<TRIPOS>ATOM
      1 SI          5.2946    2.9650    0.2851 Si      1  UNL1        0.0000
      2 C           6.5045    1.5574    0.0835 C.2     1  UNL1        0.0000
      3 C           5.8548    0.3848   -0.0374 C.ar    1  UNL1        0.0000
      4 C           6.5034   -0.8955   -0.2079 C.ar    1  UNL1        0.0000
      5 C           5.7364   -1.9928   -0.3165 C.ar    1  UNL1        0.0000
      6 C           4.2769   -1.9294   -0.2676 C.ar    1  UNL1        0.0000
      7 C           3.5692   -0.7796   -0.1109 C.ar    1  UNL1        0.0000
      8 C           2.1252   -0.8603   -0.0796 C.ar    1  UNL1        0.0000
      9 C           1.2652   -1.9576   -0.1866 C.ar    1  UNL1        0.0000
     10 C          -0.0756   -1.5024   -0.0942 C.ar    1  UNL1        0.0000
     11 C          -1.3437   -2.0966   -0.1295 C.ar    1  UNL1        0.0000
     12 C          -2.4742   -1.2452    0.0043 C.ar    1  UNL1        0.0000
     13 C          -3.8154   -1.6714   -0.0090 C.ar    1  UNL1        0.0000
     14 C          -4.3060   -2.9447   -0.1475 C.ar    1  UNL1        0.0000
     15 O          -5.6724   -2.9195   -0.1060 O.2     1  UNL1        0.0000
     16 C          -6.0524   -1.6168    0.0606 C.ar    1  UNL1        0.0000
     17 C          -4.9405   -0.8169    0.1250 C.ar    1  UNL1        0.0000
     18 C          -4.8743    0.5802    0.2902 C.ar    1  UNL1        0.0000
     19 C          -5.9732    1.4547    0.4258 C.ar    1  UNL1        0.0000
     20 C          -5.7277    2.8070    0.5806 C.ar    1  UNL1        0.0000
     21 C          -4.4107    3.2231    0.5934 C.ar    1  UNL1        0.0000
     22 N          -3.3427    2.3972    0.4645 N.ar    1  UNL1        0.0000
     23 C          -3.5283    1.0674    0.3106 C.ar    1  UNL1        0.0000
     24 C          -2.3831    0.1854    0.1729 C.ar    1  UNL1        0.0000
     25 C          -1.0813    0.7227    0.2005 C.ar    1  UNL1        0.0000
     26 C           0.0127   -0.1354    0.0669 C.ar    1  UNL1        0.0000
     27 O           1.3121    0.2490    0.0762 O.2     1  UNL1        0.0000
     28 C           4.3692    0.4615    0.0139 C.ar    1  UNL1        0.0000
     29 C           3.9083    1.7201    0.1765 C.2     1  UNL1        0.0000
     30 H           5.3938    3.6017    1.6210 H       1  UNL1        0.0000
     31 H           5.3232    3.8975   -0.8679 H       1  UNL1        0.0000
     32 H           7.5697    1.7226    0.0730 H       1  UNL1        0.0000
     33 H           7.5851   -0.9523   -0.2453 H       1  UNL1        0.0000
     34 H           6.1908   -2.9705   -0.4456 H       1  UNL1        0.0000
     35 H           3.7946   -2.8961   -0.3687 H       1  UNL1        0.0000
     36 H           1.5672   -2.9863   -0.3184 H       1  UNL1        0.0000
     37 H          -1.4485   -3.1684   -0.2548 H       1  UNL1        0.0000
     38 H          -3.8679   -3.9241   -0.2770 H       1  UNL1        0.0000
     39 H          -7.1191   -1.4511    0.1104 H       1  UNL1        0.0000
     40 H          -6.9935    1.0862    0.4104 H       1  UNL1        0.0000
     41 H          -6.5371    3.5196    0.6887 H       1  UNL1        0.0000
     42 H          -4.1607    4.2743    0.7121 H       1  UNL1        0.0000
     43 H          -0.9124    1.7886    0.3233 H       1  UNL1        0.0000
     44 H           2.8841    2.0469    0.2443 H       1  UNL1        0.0000
@<TRIPOS>BOND
     1     1     2    1
     2     2     3    2
     3     3     4   ar
     4     4     5   ar
     5     5     6   ar
     6     6     7   ar
     7     7     8    1
     8     8     9   ar
     9     9    10   ar
    10    10    11   ar
    11    11    12   ar
    12    12    13   ar
    13    13    14   ar
    14    14    15   ar
    15    15    16   ar
    16    16    17   ar
    17    17    18   ar
    18    18    19   ar
    19    19    20   ar
    20    20    21   ar
    21    21    22   ar
    22    22    23   ar
    23    23    24   ar
    24    24    25   ar
    25    25    26   ar
    26    26    27   ar
    27     7    28   ar
    28    28    29    2
    29    29     1    1
    30    28     3   ar
    31    27     8   ar
    32    26    10   ar
    33    24    12   ar
    34    17    13   ar
    35    23    18   ar
    36     1    30    1
    37     1    31    1
    38     2    32    1
    39     4    33    1
    40     5    34    1
    41     6    35    1
    42     9    36    1
    43    11    37    1
    44    14    38    1
    45    16    39    1
    46    19    40    1
    47    20    41    1
    48    21    42    1
    49    25    43    1
    50    29    44    1
