@<TRIPOS>MOLECULE
*****
 38 43 0 0 0
SMALL
GASTEIGER

@<TRIPOS>ATOM
      1 SI         -5.5064   -2.1544    0.0311 Si      1  UNL1        0.0000
      2 C          -5.9448   -0.3929   -0.4038 C.2     1  UNL1        0.0000
      3 C          -4.8529    0.3930   -0.3709 C.ar    1  UNL1        0.0000
      4 C          -4.8423    1.8028   -0.6980 C.ar    1  UNL1        0.0000
      5 C          -3.6727    2.4649   -0.6587 C.ar    1  UNL1        0.0000
      6 C          -2.4240    1.8100   -0.2767 C.ar    1  UNL1        0.0000
      7 C          -2.3380    0.4992    0.0633 C.ar    1  UNL1        0.0000
      8 C          -1.0427    0.0254    0.4613 C.ar    1  UNL1        0.0000
      9 C          -0.6913   -0.8736    1.4653 C.ar    1  UNL1        0.0000
     10 C           0.7198   -1.0079    1.4726 C.ar    1  UNL1        0.0000
     11 C           1.6603   -1.7272    2.2050 C.ar    1  UNL1        0.0000
     12 N           2.9855   -1.6018    1.9268 N.ar    1  UNL1        0.0000
     13 C           3.4077   -0.7812    0.9437 C.ar    1  UNL1        0.0000
     14 C           4.7643   -0.6644    0.6731 C.ar    1  UNL1        0.0000
     15 C           5.2676    0.1841   -0.3484 C.ar    1  UNL1        0.0000
     16 C           6.6168    0.4343   -0.7709 C.ar    1  UNL1        0.0000
     17 C           6.6943    1.3339   -1.8080 C.ar    1  UNL1        0.0000
     18 S           5.1555    1.8889   -2.2878 S.2     1  UNL1        0.0000
     19 C           4.3557    0.9254   -1.1045 C.ar    1  UNL1        0.0000
     20 C           2.9737    0.8434   -0.8712 C.ar    1  UNL1        0.0000
     21 C           2.5370   -0.0169    0.1573 C.ar    1  UNL1        0.0000
     22 C           1.1803   -0.1726    0.4727 C.ar    1  UNL1        0.0000
     23 O           0.1323    0.4539   -0.1284 O.2     1  UNL1        0.0000
     24 C          -3.5846   -0.2855    0.0069 C.ar    1  UNL1        0.0000
     25 C          -3.7249   -1.6091    0.2324 C.2     1  UNL1        0.0000
     26 H          -5.6857   -3.0858   -1.1081 H       1  UNL1        0.0000
     27 H          -6.1044   -2.5893    1.3164 H       1  UNL1        0.0000
     28 H          -6.9519   -0.1056   -0.6605 H       1  UNL1        0.0000
     29 H          -5.7644    2.2980   -0.9801 H       1  UNL1        0.0000
     30 H          -3.6270    3.5212   -0.9056 H       1  UNL1        0.0000
     31 H          -1.5467    2.4533   -0.2569 H       1  UNL1        0.0000
     32 H          -1.3875   -1.3667    2.1293 H       1  UNL1        0.0000
     33 H           1.3999   -2.4047    3.0102 H       1  UNL1        0.0000
     34 H           5.4626   -1.2473    1.2696 H       1  UNL1        0.0000
     35 H           7.4885   -0.0309   -0.3268 H       1  UNL1        0.0000
     36 H           7.5835    1.6924   -2.3083 H       1  UNL1        0.0000
     37 H           2.2694    1.4208   -1.4627 H       1  UNL1        0.0000
     38 H          -2.9621   -2.3270    0.4823 H       1  UNL1        0.0000
@<TRIPOS>BOND
     1     1     2    1
     2     2     3    2
     3     3     4   ar
     4     4     5   ar
     5     5     6   ar
     6     6     7   ar
     7     7     8    1
     8     8     9   ar
     9     9    10   ar
    10    10    11   ar
    11    11    12   ar
    12    12    13   ar
    13    13    14   ar
    14    14    15   ar
    15    15    16   ar
    16    16    17   ar
    17    17    18   ar
    18    18    19   ar
    19    19    20   ar
    20    20    21   ar
    21    21    22   ar
    22    22    23   ar
    23     7    24   ar
    24    24    25    2
    25    25     1    1
    26    24     3   ar
    27    23     8   ar
    28    22    10   ar
    29    21    13   ar
    30    19    15   ar
    31     1    26    1
    32     1    27    1
    33     2    28    1
    34     4    29    1
    35     5    30    1
    36     6    31    1
    37     9    32    1
    38    11    33    1
    39    14    34    1
    40    16    35    1
    41    17    36    1
    42    20    37    1
    43    25    38    1
