@<TRIPOS>MOLECULE
*****
 44 50 0 0 0
SMALL
GASTEIGER

@<TRIPOS>ATOM
      1 SI          6.2252   -0.3168   -2.3997 Si      1  UNL1        0.0000
      2 C           7.1978   -0.0210   -0.8283 C.2     1  UNL1        0.0000
      3 C           6.3713    0.2637    0.1950 C.ar    1  UNL1        0.0000
      4 C           6.7928    0.5560    1.5491 C.ar    1  UNL1        0.0000
      5 C           5.8544    0.8349    2.4723 C.ar    1  UNL1        0.0000
      6 C           4.4280    0.8461    2.1514 C.ar    1  UNL1        0.0000
      7 C           3.9449    0.5750    0.9137 C.ar    1  UNL1        0.0000
      8 C           2.5253    0.6167    0.7441 C.ar    1  UNL1        0.0000
      9 C           1.6789    1.7180    0.7249 C.ar    1  UNL1        0.0000
     10 C           0.3141    1.3647    0.5365 C.ar    1  UNL1        0.0000
     11 N          -0.7548    2.1989    0.4683 N.ar    1  UNL1        0.0000
     12 C          -2.0054    1.6974    0.2822 C.ar    1  UNL1        0.0000
     13 C          -2.2982    0.3344    0.1495 C.ar    1  UNL1        0.0000
     14 C          -1.2310   -0.5387    0.2154 C.ar    1  UNL1        0.0000
     15 O          -1.6180   -1.8240    0.0770 O.2     1  UNL1        0.0000
     16 C          -2.9686   -1.7991   -0.0835 C.ar    1  UNL1        0.0000
     17 C          -3.7531   -2.9343   -0.2588 C.ar    1  UNL1        0.0000
     18 C          -5.1261   -2.7341   -0.4095 C.ar    1  UNL1        0.0000
     19 C          -5.6899   -1.4506   -0.3858 C.ar    1  UNL1        0.0000
     20 C          -7.0740   -1.2805   -0.5401 C.ar    1  UNL1        0.0000
     21 C          -7.6477   -0.0084   -0.5183 C.ar    1  UNL1        0.0000
     22 C          -6.8466    1.1150   -0.3419 C.ar    1  UNL1        0.0000
     23 C          -5.4666    0.9736   -0.1861 C.ar    1  UNL1        0.0000
     24 C          -4.8660   -0.3038   -0.2049 C.ar    1  UNL1        0.0000
     25 C          -3.4562   -0.4909   -0.0488 C.ar    1  UNL1        0.0000
     26 C           0.1858    0.0048    0.4243 C.ar    1  UNL1        0.0000
     27 S           1.6270   -0.8482    0.5376 S.2     1  UNL1        0.0000
     28 C           4.9255    0.2744   -0.1397 C.ar    1  UNL1        0.0000
     29 C           4.6565    0.0060   -1.4343 C.2     1  UNL1        0.0000
     30 H           6.4850    0.7224   -3.4251 H       1  UNL1        0.0000
     31 H           6.3277   -1.7193   -2.8700 H       1  UNL1        0.0000
     32 H           8.2740   -0.0794   -0.8082 H       1  UNL1        0.0000
     33 H           7.8478    0.5480    1.7976 H       1  UNL1        0.0000
     34 H           6.1372    1.0581    3.4965 H       1  UNL1        0.0000
     35 H           3.7603    1.0756    2.9785 H       1  UNL1        0.0000
     36 H           2.0259    2.7373    0.8359 H       1  UNL1        0.0000
     37 H          -2.7794    2.4566    0.2435 H       1  UNL1        0.0000
     38 H          -3.3130   -3.9245   -0.2764 H       1  UNL1        0.0000
     39 H          -5.7613   -3.6078   -0.5481 H       1  UNL1        0.0000
     40 H          -7.7233   -2.1426   -0.6796 H       1  UNL1        0.0000
     41 H          -8.7223    0.1037   -0.6395 H       1  UNL1        0.0000
     42 H          -7.2963    2.1048   -0.3254 H       1  UNL1        0.0000
     43 H          -4.8776    1.8729   -0.0512 H       1  UNL1        0.0000
     44 H           3.6902   -0.0353   -1.9108 H       1  UNL1        0.0000
@<TRIPOS>BOND
     1     1     2    1
     2     2     3    2
     3     3     4   ar
     4     4     5   ar
     5     5     6   ar
     6     6     7   ar
     7     7     8    1
     8     8     9   ar
     9     9    10   ar
    10    10    11   ar
    11    11    12   ar
    12    12    13   ar
    13    13    14   ar
    14    14    15   ar
    15    15    16   ar
    16    16    17   ar
    17    17    18   ar
    18    18    19   ar
    19    19    20   ar
    20    20    21   ar
    21    21    22   ar
    22    22    23   ar
    23    23    24   ar
    24    24    25   ar
    25    14    26   ar
    26    26    27   ar
    27     7    28   ar
    28    28    29    2
    29    29     1    1
    30    28     3   ar
    31    27     8   ar
    32    26    10   ar
    33    25    13   ar
    34    25    16   ar
    35    24    19   ar
    36     1    30    1
    37     1    31    1
    38     2    32    1
    39     4    33    1
    40     5    34    1
    41     6    35    1
    42     9    36    1
    43    12    37    1
    44    17    38    1
    45    18    39    1
    46    20    40    1
    47    21    41    1
    48    22    42    1
    49    23    43    1
    50    29    44    1
