@<TRIPOS>MOLECULE
*****
 45 52 0 0 0
SMALL
GASTEIGER

@<TRIPOS>ATOM
      1 SI         -5.6048    1.7909    1.6079 Si      1  UNL1        0.0000
      2 C          -6.5743    0.2720    1.1212 C.2     1  UNL1        0.0000
      3 C          -5.8070   -0.5747    0.4076 C.ar    1  UNL1        0.0000
      4 C          -6.2588   -1.8328   -0.1537 C.ar    1  UNL1        0.0000
      5 C          -5.3931   -2.5671   -0.8752 C.ar    1  UNL1        0.0000
      6 C          -4.0124   -2.1437   -1.0966 C.ar    1  UNL1        0.0000
      7 C          -3.4985   -0.9955   -0.5917 C.ar    1  UNL1        0.0000
      8 C          -2.0714   -0.7107   -0.8595 C.ar    1  UNL1        0.0000
      9 C          -1.1919   -0.5174    0.2001 C.ar    1  UNL1        0.0000
     10 C           0.1182   -0.2798   -0.1830 C.ar    1  UNL1        0.0000
     11 O           1.1624   -0.0631    0.6742 O.2     1  UNL1        0.0000
     12 C           2.2889    0.1296   -0.0843 C.ar    1  UNL1        0.0000
     13 C           1.9115    0.0311   -1.4038 C.ar    1  UNL1        0.0000
     14 C           0.5435   -0.2350   -1.5073 C.ar    1  UNL1        0.0000
     15 C          -0.4025   -0.4524   -2.5054 C.ar    1  UNL1        0.0000
     16 N          -1.6955   -0.6965   -2.1674 N.ar    1  UNL1        0.0000
     17 C           2.8961    0.1997   -2.4146 C.ar    1  UNL1        0.0000
     18 N           2.6066    0.1373   -3.7054 N.ar    1  UNL1        0.0000
     19 S           4.0955    0.4139   -4.4243 S.2     1  UNL1        0.0000
     20 N           5.0626    0.5924   -3.0686 N.ar    1  UNL1        0.0000
     21 C           4.2652    0.4583   -1.9850 C.ar    1  UNL1        0.0000
     22 C           4.6617    0.5510   -0.6086 C.ar    1  UNL1        0.0000
     23 C           6.0334    0.8042   -0.2319 C.ar    1  UNL1        0.0000
     24 C           6.4758    0.9130    1.1035 C.ar    1  UNL1        0.0000
     25 C           5.4363    0.7504    2.0201 C.ar    1  UNL1        0.0000
     26 C           5.6495    0.8162    3.3763 C.ar    1  UNL1        0.0000
     27 S           4.1892    0.5837    4.2466 S.2     1  UNL1        0.0000
     28 C           3.2709    0.3950    2.8043 C.ar    1  UNL1        0.0000
     29 C           4.0532    0.4964    1.6769 C.ar    1  UNL1        0.0000
     30 C           3.5960    0.3800    0.3511 C.ar    1  UNL1        0.0000
     31 C          -4.4053   -0.1354    0.1855 C.ar    1  UNL1        0.0000
     32 C          -4.1188    1.0688    0.7236 C.2     1  UNL1        0.0000
     33 H          -5.3943    1.8860    3.0729 H       1  UNL1        0.0000
     34 H          -6.1092    3.0237    0.9585 H       1  UNL1        0.0000
     35 H          -7.6119    0.1505    1.3869 H       1  UNL1        0.0000
     36 H          -7.2816   -2.1551    0.0032 H       1  UNL1        0.0000
     37 H          -5.7017   -3.5097   -1.3180 H       1  UNL1        0.0000
     38 H          -3.3987   -2.8123   -1.6959 H       1  UNL1        0.0000
     39 H          -1.4926   -0.5570    1.2377 H       1  UNL1        0.0000
     40 H          -0.1722   -0.4450   -3.5675 H       1  UNL1        0.0000
     41 H           6.7771    0.9204   -1.0234 H       1  UNL1        0.0000
     42 H           7.5103    1.1033    1.3607 H       1  UNL1        0.0000
     43 H           6.5740    0.9864    3.9110 H       1  UNL1        0.0000
     44 H           2.2083    0.2167    2.8888 H       1  UNL1        0.0000
     45 H          -3.1897    1.6122    0.6756 H       1  UNL1        0.0000
@<TRIPOS>BOND
     1     1     2    1
     2     2     3    2
     3     3     4   ar
     4     4     5   ar
     5     5     6   ar
     6     6     7   ar
     7     7     8    1
     8     8     9   ar
     9     9    10   ar
    10    10    11   ar
    11    11    12   ar
    12    12    13   ar
    13    13    14   ar
    14    14    15   ar
    15    15    16   ar
    16    13    17   ar
    17    17    18   ar
    18    18    19   ar
    19    19    20   ar
    20    20    21   ar
    21    21    22   ar
    22    22    23   ar
    23    23    24   ar
    24    24    25   ar
    25    25    26   ar
    26    26    27   ar
    27    27    28   ar
    28    28    29   ar
    29    29    30   ar
    30     7    31   ar
    31    31    32    2
    32    32     1    1
    33    31     3   ar
    34    16     8   ar
    35    21    17   ar
    36    30    22   ar
    37    14    10   ar
    38    29    25   ar
    39    30    12   ar
    40     1    33    1
    41     1    34    1
    42     2    35    1
    43     4    36    1
    44     5    37    1
    45     6    38    1
    46     9    39    1
    47    15    40    1
    48    23    41    1
    49    24    42    1
    50    26    43    1
    51    28    44    1
    52    32    45    1
