@<TRIPOS>MOLECULE
*****
 39 44 0 0 0
SMALL
GASTEIGER

@<TRIPOS>ATOM
      1 SI          2.5210    0.2623   -1.4003 Si      1  UNL1        0.0000
      2 C           3.5962    0.0254    0.1199 C.2     1  UNL1        0.0000
      3 C           2.8619   -0.1762    1.2376 C.2     1  UNL1        0.0000
      4 C           1.4077   -0.1656    1.0197 C.ar    1  UNL1        0.0000
      5 C           0.4488   -0.3482    2.0008 C.ar    1  UNL1        0.0000
      6 C          -0.9182   -0.3150    1.6575 C.ar    1  UNL1        0.0000
      7 C          -1.8834   -0.4977    2.6386 C.ar    1  UNL1        0.0000
      8 N          -3.2187   -0.4878    2.4373 N.ar    1  UNL1        0.0000
      9 C          -3.6807   -0.2879    1.2023 C.ar    1  UNL1        0.0000
     10 C          -5.0989   -0.2955    1.0958 C.ar    1  UNL1        0.0000
     11 C          -5.8529   -0.1106   -0.0809 C.ar    1  UNL1        0.0000
     12 C          -5.0037    0.0848   -1.1495 C.ar    1  UNL1        0.0000
     13 C          -5.4216    0.2943   -2.4370 C.ar    1  UNL1        0.0000
     14 N          -4.2883    0.4428   -3.1969 N.ar    1  UNL1        0.0000
     15 C          -3.1636    0.3289   -2.4011 C.ar    1  UNL1        0.0000
     16 C          -3.5724    0.1032   -1.1062 C.ar    1  UNL1        0.0000
     17 C          -2.7901   -0.0838    0.0866 C.ar    1  UNL1        0.0000
     18 C          -1.3574   -0.0986    0.3272 C.ar    1  UNL1        0.0000
     19 C          -0.3471    0.0844   -0.6508 C.ar    1  UNL1        0.0000
     20 C           1.0047    0.0506   -0.3061 C.ar    1  UNL1        0.0000
     21 C           5.0514    0.0668    0.0297 C.ar    1  UNL1        0.0000
     22 N           5.7310   -0.1127    1.1665 N.ar    1  UNL1        0.0000
     23 C           7.0544   -0.0674    1.0388 C.ar    1  UNL1        0.0000
     24 N           7.7253    0.1351   -0.0910 N.ar    1  UNL1        0.0000
     25 C           6.9444    0.3003   -1.1540 C.ar    1  UNL1        0.0000
     26 N           5.6129    0.2777   -1.1621 N.ar    1  UNL1        0.0000
     27 H           2.6215   -0.8421   -2.3905 H       1  UNL1        0.0000
     28 H           2.5770    1.6331   -1.9733 H       1  UNL1        0.0000
     29 H           3.2775   -0.3352    2.2251 H       1  UNL1        0.0000
     30 H           0.7564   -0.5162    3.0300 H       1  UNL1        0.0000
     31 H          -1.6020   -0.6675    3.6759 H       1  UNL1        0.0000
     32 H          -5.6576   -0.4613    2.0197 H       1  UNL1        0.0000
     33 H          -6.9322   -0.1252   -0.1094 H       1  UNL1        0.0000
     34 H          -6.4044    0.3522   -2.8852 H       1  UNL1        0.0000
     35 H          -4.2758    0.6112   -4.1947 H       1  UNL1        0.0000
     36 H          -2.2013    0.4260   -2.8746 H       1  UNL1        0.0000
     37 H          -0.6001    0.2546   -1.6871 H       1  UNL1        0.0000
     38 H           7.6398   -0.2089    1.9408 H       1  UNL1        0.0000
     39 H           7.4383    0.4695   -2.1049 H       1  UNL1        0.0000
@<TRIPOS>BOND
     1     1     2    1
     2     2     3    2
     3     3     4    1
     4     4     5   ar
     5     5     6   ar
     6     6     7   ar
     7     7     8   ar
     8     8     9   ar
     9     9    10   ar
    10    10    11   ar
    11    11    12   ar
    12    12    13   ar
    13    13    14   ar
    14    14    15   ar
    15    15    16   ar
    16    16    17   ar
    17    17    18   ar
    18    18    19   ar
    19    19    20   ar
    20     2    21    1
    21    21    22   ar
    22    22    23   ar
    23    23    24   ar
    24    24    25   ar
    25    25    26   ar
    26    20     1    1
    27    26    21   ar
    28    20     4   ar
    29    18     6   ar
    30    17     9   ar
    31    16    12   ar
    32     1    27    1
    33     1    28    1
    34     3    29    1
    35     5    30    1
    36     7    31    1
    37    10    32    1
    38    11    33    1
    39    13    34    1
    40    14    35    1
    41    15    36    1
    42    19    37    1
    43    23    38    1
    44    25    39    1
