@<TRIPOS>MOLECULE
*****
 48 55 0 0 0
SMALL
GASTEIGER

@<TRIPOS>ATOM
      1 SI          5.5747    0.8728   -2.3942 Si      1  UNL1        0.0000
      2 C           6.4039   -0.5538   -1.5081 C.2     1  UNL1        0.0000
      3 C           5.5204   -1.2032   -0.7276 C.ar    1  UNL1        0.0000
      4 C           5.8206   -2.3578    0.0944 C.ar    1  UNL1        0.0000
      5 C           4.8314   -2.9091    0.8223 C.ar    1  UNL1        0.0000
      6 C           3.4686   -2.3796    0.8091 C.ar    1  UNL1        0.0000
      7 C           3.1087   -1.2989    0.0766 C.ar    1  UNL1        0.0000
      8 C           1.7102   -0.8716    0.1342 C.ar    1  UNL1        0.0000
      9 C           0.6994   -1.3993   -0.6935 C.ar    1  UNL1        0.0000
     10 C          -0.6189   -0.9092   -0.5795 C.ar    1  UNL1        0.0000
     11 O          -1.6671   -1.3054   -1.3617 O.2     1  UNL1        0.0000
     12 C          -2.7556   -0.5986   -0.9465 C.ar    1  UNL1        0.0000
     13 C          -4.0598   -0.6279   -1.5320 C.ar    1  UNL1        0.0000
     14 O          -4.4799   -1.3264   -2.6219 O.2     1  UNL1        0.0000
     15 C          -5.7921   -1.0072   -2.8050 C.ar    1  UNL1        0.0000
     16 C          -6.2232   -0.1123   -1.8475 C.ar    1  UNL1        0.0000
     17 C          -5.1025    0.1315   -1.0280 C.ar    1  UNL1        0.0000
     18 C          -4.8946    0.9319    0.1417 C.ar    1  UNL1        0.0000
     19 C          -5.8406    1.6316    0.7982 C.2     1  UNL1        0.0000
     20 SI         -5.1603    2.3710    2.3642 Si      1  UNL1        0.0000
     21 C          -3.5130    1.5821    1.9725 C.2     1  UNL1        0.0000
     22 C          -3.5254    0.9455    0.7856 C.ar    1  UNL1        0.0000
     23 C          -2.4526    0.2126    0.1550 C.ar    1  UNL1        0.0000
     24 C          -1.0703    0.0593    0.3073 C.ar    1  UNL1        0.0000
     25 C          -0.0537    0.6591    1.1129 C.ar    1  UNL1        0.0000
     26 C          -0.0713    1.7194    1.9690 C.ar    1  UNL1        0.0000
     27 N           1.2235    1.8399    2.4360 N.ar    1  UNL1        0.0000
     28 C           2.0359    0.8959    1.8409 C.ar    1  UNL1        0.0000
     29 C           1.2600    0.1505    0.9797 C.ar    1  UNL1        0.0000
     30 C           4.1405   -0.6591   -0.7449 C.ar    1  UNL1        0.0000
     31 C           3.9748    0.4118   -1.5475 C.2     1  UNL1        0.0000
     32 H           6.0975    2.1875   -1.9483 H       1  UNL1        0.0000
     33 H           5.5272    0.6710   -3.8626 H       1  UNL1        0.0000
     34 H           7.4490   -0.7778   -1.6467 H       1  UNL1        0.0000
     35 H           6.8271   -2.7592    0.1100 H       1  UNL1        0.0000
     36 H           5.0227   -3.7759    1.4471 H       1  UNL1        0.0000
     37 H           2.7453   -2.9020    1.4304 H       1  UNL1        0.0000
     38 H           0.9268   -2.1663   -1.4275 H       1  UNL1        0.0000
     39 H          -6.2714   -1.4922   -3.6440 H       1  UNL1        0.0000
     40 H          -7.2190    0.2973   -1.7620 H       1  UNL1        0.0000
     41 H          -6.8815    1.7285    0.5345 H       1  UNL1        0.0000
     42 H          -5.0990    3.8511    2.3150 H       1  UNL1        0.0000
     43 H          -5.7842    1.7982    3.5803 H       1  UNL1        0.0000
     44 H          -2.7109    1.6439    2.6830 H       1  UNL1        0.0000
     45 H          -0.8217    2.4259    2.2820 H       1  UNL1        0.0000
     46 H           1.5408    2.5418    3.0920 H       1  UNL1        0.0000
     47 H           3.0931    0.8641    2.0707 H       1  UNL1        0.0000
     48 H           3.0664    0.9683   -1.7158 H       1  UNL1        0.0000
@<TRIPOS>BOND
     1     1     2    1
     2     2     3    2
     3     3     4   ar
     4     4     5   ar
     5     5     6   ar
     6     6     7   ar
     7     7     8    1
     8     8     9   ar
     9     9    10   ar
    10    10    11   ar
    11    11    12   ar
    12    12    13   ar
    13    13    14   ar
    14    14    15   ar
    15    15    16   ar
    16    16    17   ar
    17    17    18   ar
    18    18    19    2
    19    19    20    1
    20    20    21    1
    21    21    22    2
    22    22    23   ar
    23    23    24   ar
    24    24    25   ar
    25    25    26   ar
    26    26    27   ar
    27    27    28   ar
    28    28    29   ar
    29     7    30   ar
    30    30    31    2
    31    31     1    1
    32    30     3   ar
    33    29     8   ar
    34    24    10   ar
    35    29    25   ar
    36    23    12   ar
    37    17    13   ar
    38    22    18   ar
    39     1    32    1
    40     1    33    1
    41     2    34    1
    42     4    35    1
    43     5    36    1
    44     6    37    1
    45     9    38    1
    46    15    39    1
    47    16    40    1
    48    19    41    1
    49    20    42    1
    50    20    43    1
    51    21    44    1
    52    26    45    1
    53    27    46    1
    54    28    47    1
    55    31    48    1
