@<TRIPOS>MOLECULE
*****
 44 51 0 0 0
SMALL
GASTEIGER

@<TRIPOS>ATOM
      1 SI         -5.5404    1.9014    1.1732 Si      1  UNL1        0.0000
      2 C          -6.3731    0.7853   -0.0781 C.2     1  UNL1        0.0000
      3 C          -5.4647    0.0186   -0.7088 C.ar    1  UNL1        0.0000
      4 C          -5.7632   -0.9511   -1.7427 C.ar    1  UNL1        0.0000
      5 C          -4.7488   -1.6437   -2.2931 C.ar    1  UNL1        0.0000
      6 C          -3.3603   -1.4505   -1.8781 C.ar    1  UNL1        0.0000
      7 C          -2.9984   -0.5724   -0.9127 C.ar    1  UNL1        0.0000
      8 C          -1.5765   -0.4676   -0.5854 C.ar    1  UNL1        0.0000
      9 C          -0.6337    0.2454   -1.3689 C.ar    1  UNL1        0.0000
     10 C           0.7394    0.3215   -0.9911 C.ar    1  UNL1        0.0000
     11 S           2.0515    1.1297   -1.7907 S.2     1  UNL1        0.0000
     12 C           3.1740    0.6101   -0.5625 C.ar    1  UNL1        0.0000
     13 C           2.5752   -0.1499    0.4215 C.ar    1  UNL1        0.0000
     14 N           3.5302   -0.5215    1.3555 N.ar    1  UNL1        0.0000
     15 C           4.7523   -0.0051    0.9827 C.ar    1  UNL1        0.0000
     16 C           6.0280   -0.0808    1.5653 C.ar    1  UNL1        0.0000
     17 C           7.1111    0.5693    0.9307 C.ar    1  UNL1        0.0000
     18 C           6.8563    1.2747   -0.2768 C.ar    1  UNL1        0.0000
     19 N           7.7626    1.9481   -1.0124 N.ar    1  UNL1        0.0000
     20 S           6.9325    2.5877   -2.3247 S.2     1  UNL1        0.0000
     21 N           5.3781    2.0355   -2.0161 N.ar    1  UNL1        0.0000
     22 C           5.5379    1.3608   -0.8913 C.ar    1  UNL1        0.0000
     23 C           4.5175    0.6794   -0.1845 C.ar    1  UNL1        0.0000
     24 C           1.2130   -0.2917    0.1514 C.ar    1  UNL1        0.0000
     25 C           0.3208   -1.0187    0.9805 C.ar    1  UNL1        0.0000
     26 C           0.4638   -1.7159    2.1382 C.ar    1  UNL1        0.0000
     27 O          -0.7703   -2.2135    2.4776 O.2     1  UNL1        0.0000
     28 C          -1.6605   -1.8102    1.5126 C.ar    1  UNL1        0.0000
     29 C          -1.0199   -1.0571    0.5551 C.ar    1  UNL1        0.0000
     30 C          -4.0583    0.2210   -0.2824 C.ar    1  UNL1        0.0000
     31 C          -3.8980    1.1545    0.6776 C.2     1  UNL1        0.0000
     32 H          -5.6464    3.3350    0.8095 H       1  UNL1        0.0000
     33 H          -5.9180    1.5639    2.5669 H       1  UNL1        0.0000
     34 H          -7.4399    0.8029   -0.2323 H       1  UNL1        0.0000
     35 H          -6.7892   -1.1017   -2.0580 H       1  UNL1        0.0000
     36 H          -4.9394   -2.3761   -3.0716 H       1  UNL1        0.0000
     37 H          -2.6211   -2.0642   -2.3875 H       1  UNL1        0.0000
     38 H          -0.9639    0.7508   -2.2750 H       1  UNL1        0.0000
     39 H           3.3301   -1.0840    2.1713 H       1  UNL1        0.0000
     40 H           6.1912   -0.6285    2.4901 H       1  UNL1        0.0000
     41 H           8.1118    0.5354    1.3475 H       1  UNL1        0.0000
     42 H           1.2637   -1.9618    2.8189 H       1  UNL1        0.0000
     43 H          -2.6804   -2.1388    1.6606 H       1  UNL1        0.0000
     44 H          -2.9767    1.4740    1.1378 H       1  UNL1        0.0000
@<TRIPOS>BOND
     1     1     2    1
     2     2     3    2
     3     3     4   ar
     4     4     5   ar
     5     5     6   ar
     6     6     7   ar
     7     7     8    1
     8     8     9   ar
     9     9    10   ar
    10    10    11   ar
    11    11    12   ar
    12    12    13   ar
    13    13    14   ar
    14    14    15   ar
    15    15    16   ar
    16    16    17   ar
    17    17    18   ar
    18    18    19   ar
    19    19    20   ar
    20    20    21   ar
    21    21    22   ar
    22    22    23   ar
    23    13    24   ar
    24    24    25   ar
    25    25    26   ar
    26    26    27   ar
    27    27    28   ar
    28    28    29   ar
    29     7    30   ar
    30    30    31    2
    31    31     1    1
    32    30     3   ar
    33    29     8   ar
    34    24    10   ar
    35    29    25   ar
    36    23    12   ar
    37    23    15   ar
    38    22    18   ar
    39     1    32    1
    40     1    33    1
    41     2    34    1
    42     4    35    1
    43     5    36    1
    44     6    37    1
    45     9    38    1
    46    14    39    1
    47    16    40    1
    48    17    41    1
    49    26    42    1
    50    28    43    1
    51    31    44    1
