@<TRIPOS>MOLECULE
*****
 42 48 0 0 0
SMALL
GASTEIGER

@<TRIPOS>ATOM
      1 SI         -5.0394    1.4354    2.4493 Si      1  UNL1        0.0000
      2 C          -6.0305    1.0515    0.9076 C.2     1  UNL1        0.0000
      3 C          -5.2257    0.6073   -0.0752 C.ar    1  UNL1        0.0000
      4 C          -5.6608    0.2217   -1.4021 C.ar    1  UNL1        0.0000
      5 C          -4.7401   -0.2023   -2.2878 C.ar    1  UNL1        0.0000
      6 C          -3.3195   -0.2864   -1.9524 C.ar    1  UNL1        0.0000
      7 C          -2.8334    0.0456   -0.7328 C.ar    1  UNL1        0.0000
      8 C          -1.3881   -0.0714   -0.5168 C.ar    1  UNL1        0.0000
      9 C          -0.4753    0.9353   -0.9215 C.ar    1  UNL1        0.0000
     10 C           0.9168    0.7963   -0.6834 C.ar    1  UNL1        0.0000
     11 S           2.2181    1.8883   -1.0853 S.2     1  UNL1        0.0000
     12 C           3.3970    0.8025   -0.3866 C.ar    1  UNL1        0.0000
     13 C           4.7954    0.7005   -0.1652 C.ar    1  UNL1        0.0000
     14 C           5.9344    1.4777   -0.4259 C.ar    1  UNL1        0.0000
     15 C           7.1813    0.9823   -0.0212 C.ar    1  UNL1        0.0000
     16 C           7.2907   -0.2522    0.6250 C.ar    1  UNL1        0.0000
     17 C           6.1604   -1.0342    0.8893 C.ar    1  UNL1        0.0000
     18 C           4.9297   -0.5222    0.4780 C.ar    1  UNL1        0.0000
     19 O           3.7354   -1.1538    0.6575 O.2     1  UNL1        0.0000
     20 C           2.8068   -0.3156    0.1152 C.ar    1  UNL1        0.0000
     21 C           1.4304   -0.3167   -0.0507 C.ar    1  UNL1        0.0000
     22 C           0.5810   -1.3704    0.3896 C.ar    1  UNL1        0.0000
     23 C           0.9367   -2.5228    1.0267 C.ar    1  UNL1        0.0000
     24 S          -0.4830   -3.4485    1.3343 S.2     1  UNL1        0.0000
     25 C          -1.5085   -2.2672    0.6001 C.ar    1  UNL1        0.0000
     26 C          -0.8025   -1.1804    0.1260 C.ar    1  UNL1        0.0000
     27 C          -3.7865    0.5238    0.2734 C.ar    1  UNL1        0.0000
     28 C          -3.4958    0.9107    1.5320 C.2     1  UNL1        0.0000
     29 H          -5.3709    0.5249    3.5718 H       1  UNL1        0.0000
     30 H          -5.0429    2.8821    2.7748 H       1  UNL1        0.0000
     31 H          -7.0990    1.1892    0.8715 H       1  UNL1        0.0000
     32 H          -6.7116    0.2801   -1.6611 H       1  UNL1        0.0000
     33 H          -5.0342   -0.4983   -3.2902 H       1  UNL1        0.0000
     34 H          -2.6625   -0.6413   -2.7428 H       1  UNL1        0.0000
     35 H          -0.8482    1.8299   -1.4169 H       1  UNL1        0.0000
     36 H           5.8561    2.4375   -0.9276 H       1  UNL1        0.0000
     37 H           8.0776    1.5688   -0.2136 H       1  UNL1        0.0000
     38 H           8.2713   -0.6134    0.9287 H       1  UNL1        0.0000
     39 H           6.2315   -1.9928    1.3894 H       1  UNL1        0.0000
     40 H           1.9091   -2.8849    1.3303 H       1  UNL1        0.0000
     41 H          -2.5741   -2.4510    0.5667 H       1  UNL1        0.0000
     42 H          -2.5273    0.9344    2.0056 H       1  UNL1        0.0000
@<TRIPOS>BOND
     1     1     2    1
     2     2     3    2
     3     3     4   ar
     4     4     5   ar
     5     5     6   ar
     6     6     7   ar
     7     7     8    1
     8     8     9   ar
     9     9    10   ar
    10    10    11   ar
    11    11    12   ar
    12    12    13   ar
    13    13    14   ar
    14    14    15   ar
    15    15    16   ar
    16    16    17   ar
    17    17    18   ar
    18    18    19   ar
    19    19    20   ar
    20    20    21   ar
    21    21    22   ar
    22    22    23   ar
    23    23    24   ar
    24    24    25   ar
    25    25    26   ar
    26     7    27   ar
    27    27    28    2
    28    28     1    1
    29    27     3   ar
    30    26     8   ar
    31    21    10   ar
    32    26    22   ar
    33    20    12   ar
    34    18    13   ar
    35     1    29    1
    36     1    30    1
    37     2    31    1
    38     4    32    1
    39     5    33    1
    40     6    34    1
    41     9    35    1
    42    14    36    1
    43    15    37    1
    44    16    38    1
    45    17    39    1
    46    23    40    1
    47    25    41    1
    48    28    42    1
