@<TRIPOS>MOLECULE
*****
 44 50 0 0 0
SMALL
GASTEIGER

@<TRIPOS>ATOM
      1 SI         -4.9318    1.9549    2.2419 Si      1  UNL1        0.0000
      2 C          -5.9690    0.6517    1.3863 C.2     1  UNL1        0.0000
      3 C          -5.2024   -0.1180    0.5919 C.ar    1  UNL1        0.0000
      4 C          -5.6808   -1.2195   -0.2168 C.ar    1  UNL1        0.0000
      5 C          -4.7962   -1.9011   -0.9675 C.ar    1  UNL1        0.0000
      6 C          -3.3745   -1.5638   -0.9906 C.ar    1  UNL1        0.0000
      7 C          -2.8370   -0.5529   -0.2634 C.ar    1  UNL1        0.0000
      8 C          -1.3945   -0.2930   -0.3629 C.ar    1  UNL1        0.0000
      9 C          -0.5704   -0.9475    0.4920 C.ar    1  UNL1        0.0000
     10 C           0.8405   -0.7123    0.4295 C.ar    1  UNL1        0.0000
     11 S           1.9202   -1.5158    1.4826 S.2     1  UNL1        0.0000
     12 C           3.2801   -0.6891    0.7506 C.ar    1  UNL1        0.0000
     13 C           4.6986   -0.7126    0.9785 C.ar    1  UNL1        0.0000
     14 C           5.4722   -1.4469    1.9105 C.ar    1  UNL1        0.0000
     15 C           6.8613   -1.2986    1.9418 C.ar    1  UNL1        0.0000
     16 C           7.4918   -0.4315    1.0608 C.ar    1  UNL1        0.0000
     17 C           6.7491    0.3031    0.1330 C.ar    1  UNL1        0.0000
     18 C           5.3469    0.1542    0.1004 C.ar    1  UNL1        0.0000
     19 S           4.2639    0.9672   -0.9634 S.2     1  UNL1        0.0000
     20 C           2.8918    0.1591   -0.2537 C.ar    1  UNL1        0.0000
     21 C           1.4769    0.1521   -0.4465 C.ar    1  UNL1        0.0000
     22 C           0.6785    0.8877   -1.3803 C.ar    1  UNL1        0.0000
     23 C           1.0708    1.7780   -2.3116 C.2     1  UNL1        0.0000
     24 SI         -0.3868    2.4518   -3.2646 Si      1  UNL1        0.0000
     25 C          -1.4987    1.3746   -2.2294 C.2     1  UNL1        0.0000
     26 C          -0.7965    0.6528   -1.3301 C.ar    1  UNL1        0.0000
     27 C          -3.7603    0.2276    0.5750 C.ar    1  UNL1        0.0000
     28 C          -3.4302    1.2703    1.3644 C.2     1  UNL1        0.0000
     29 H          -5.2755    3.3271    1.7965 H       1  UNL1        0.0000
     30 H          -4.8755    1.7536    3.7100 H       1  UNL1        0.0000
     31 H          -7.0323    0.5774    1.5473 H       1  UNL1        0.0000
     32 H          -6.7335   -1.4773   -0.2065 H       1  UNL1        0.0000
     33 H          -5.1215   -2.7323   -1.5855 H       1  UNL1        0.0000
     34 H          -2.7493   -2.1750   -1.6371 H       1  UNL1        0.0000
     35 H          -0.9651   -1.6450    1.2259 H       1  UNL1        0.0000
     36 H           4.9871   -2.1288    2.6048 H       1  UNL1        0.0000
     37 H           7.4479   -1.8660    2.6604 H       1  UNL1        0.0000
     38 H           8.5733   -0.3210    1.0907 H       1  UNL1        0.0000
     39 H           7.2486    0.9805   -0.5544 H       1  UNL1        0.0000
     40 H           2.0688    2.1117   -2.5377 H       1  UNL1        0.0000
     41 H          -0.3655    2.0439   -4.6898 H       1  UNL1        0.0000
     42 H          -0.6022    3.8976   -3.0164 H       1  UNL1        0.0000
     43 H          -2.5678    1.3739   -2.3752 H       1  UNL1        0.0000
     44 H          -2.4510    1.6987    1.5087 H       1  UNL1        0.0000
@<TRIPOS>BOND
     1     1     2    1
     2     2     3    2
     3     3     4   ar
     4     4     5   ar
     5     5     6   ar
     6     6     7   ar
     7     7     8    1
     8     8     9   ar
     9     9    10   ar
    10    10    11   ar
    11    11    12   ar
    12    12    13   ar
    13    13    14   ar
    14    14    15   ar
    15    15    16   ar
    16    16    17   ar
    17    17    18   ar
    18    18    19   ar
    19    19    20   ar
    20    20    21   ar
    21    21    22   ar
    22    22    23    2
    23    23    24    1
    24    24    25    1
    25    25    26    2
    26     7    27   ar
    27    27    28    2
    28    28     1    1
    29    27     3   ar
    30    26     8   ar
    31    21    10   ar
    32    26    22   ar
    33    20    12   ar
    34    18    13   ar
    35     1    29    1
    36     1    30    1
    37     2    31    1
    38     4    32    1
    39     5    33    1
    40     6    34    1
    41     9    35    1
    42    14    36    1
    43    15    37    1
    44    16    38    1
    45    17    39    1
    46    23    40    1
    47    24    41    1
    48    24    42    1
    49    25    43    1
    50    28    44    1
