@<TRIPOS>MOLECULE
*****
 39 44 0 0 0
SMALL
GASTEIGER

@<TRIPOS>ATOM
      1 SI         -4.4807   -3.0631    0.8820 Si      1  UNL1        0.0000
      2 C          -5.6466   -1.6134    0.6658 C.2     1  UNL1        0.0000
      3 C          -4.9799   -0.5325    0.2204 C.ar    1  UNL1        0.0000
      4 C          -5.5722    0.7601   -0.0581 C.ar    1  UNL1        0.0000
      5 C          -4.7798    1.7535   -0.5025 C.ar    1  UNL1        0.0000
      6 C          -3.3444    1.5688   -0.7108 C.ar    1  UNL1        0.0000
      7 C          -2.7146    0.3934   -0.4742 C.ar    1  UNL1        0.0000
      8 C          -1.2621    0.3277   -0.7183 C.ar    1  UNL1        0.0000
      9 C          -0.7842   -0.0322   -1.9843 C.ar    1  UNL1        0.0000
     10 C           0.5899   -0.1102   -2.2412 C.ar    1  UNL1        0.0000
     11 C           1.4864    0.1776   -1.2010 C.ar    1  UNL1        0.0000
     12 C           1.0037    0.5349    0.0675 C.ar    1  UNL1        0.0000
     13 C          -0.3708    0.6148    0.3298 C.ar    1  UNL1        0.0000
     14 N           2.0755    0.7659    0.9159 N.ar    1  UNL1        0.0000
     15 C           3.2311    0.5640    0.2142 C.ar    1  UNL1        0.0000
     16 C           4.6153    0.5740    0.2758 C.ar    1  UNL1        0.0000
     17 SI          6.0794    0.8654    1.3466 Si      1  UNL1        0.0000
     18 C           7.1862    0.4366   -0.1668 C.2     1  UNL1        0.0000
     19 C           6.4485    0.1354   -1.2585 C.2     1  UNL1        0.0000
     20 C           5.0509    0.2181   -0.9892 C.ar    1  UNL1        0.0000
     21 O           3.9899   -0.0099   -1.8248 O.2     1  UNL1        0.0000
     22 C           2.8859    0.2131   -1.0485 C.ar    1  UNL1        0.0000
     23 C          -3.5245   -0.7281    0.0106 C.ar    1  UNL1        0.0000
     24 C          -3.0825   -1.9691    0.2987 C.2     1  UNL1        0.0000
     25 H          -4.7758   -4.1677   -0.0626 H       1  UNL1        0.0000
     26 H          -4.3378   -3.4605    2.3039 H       1  UNL1        0.0000
     27 H          -6.6993   -1.6944    0.8828 H       1  UNL1        0.0000
     28 H          -6.6354    0.9073    0.0922 H       1  UNL1        0.0000
     29 H          -5.1928    2.7332   -0.7218 H       1  UNL1        0.0000
     30 H          -2.7959    2.4354   -1.0715 H       1  UNL1        0.0000
     31 H          -1.4851   -0.2591   -2.7852 H       1  UNL1        0.0000
     32 H           0.9552   -0.3897   -3.2247 H       1  UNL1        0.0000
     33 H          -0.7404    0.8873    1.3140 H       1  UNL1        0.0000
     34 H           2.0363    1.0375    1.8890 H       1  UNL1        0.0000
     35 H           6.2777    2.2769    1.7590 H       1  UNL1        0.0000
     36 H           6.2647   -0.1297    2.4315 H       1  UNL1        0.0000
     37 H           8.2609    0.4544   -0.0828 H       1  UNL1        0.0000
     38 H           6.8391   -0.1378   -2.2290 H       1  UNL1        0.0000
     39 H          -2.0720   -2.3380    0.2201 H       1  UNL1        0.0000
@<TRIPOS>BOND
     1     1     2    1
     2     2     3    2
     3     3     4   ar
     4     4     5   ar
     5     5     6   ar
     6     6     7   ar
     7     7     8    1
     8     8     9   ar
     9     9    10   ar
    10    10    11   ar
    11    11    12   ar
    12    12    13   ar
    13    12    14   ar
    14    14    15   ar
    15    15    16   ar
    16    16    17    1
    17    17    18    1
    18    18    19    2
    19    19    20    1
    20    20    21   ar
    21    21    22   ar
    22     7    23   ar
    23    23    24    2
    24    24     1    1
    25    23     3   ar
    26    13     8   ar
    27    22    15   ar
    28    22    11   ar
    29    20    16   ar
    30     1    25    1
    31     1    26    1
    32     2    27    1
    33     4    28    1
    34     5    29    1
    35     6    30    1
    36     9    31    1
    37    10    32    1
    38    13    33    1
    39    14    34    1
    40    17    35    1
    41    17    36    1
    42    18    37    1
    43    19    38    1
    44    24    39    1
