@<TRIPOS>MOLECULE
*****
 47 53 0 0 0
SMALL
GASTEIGER

@<TRIPOS>ATOM
      1 SI         -5.3422    2.4151    1.4039 Si      1  UNL1        0.0000
      2 C          -6.3653    1.0229    0.6814 C.2     1  UNL1        0.0000
      3 C          -5.5794    0.1468    0.0287 C.ar    1  UNL1        0.0000
      4 C          -6.0415   -1.0459   -0.6516 C.ar    1  UNL1        0.0000
      5 C          -5.1381   -1.8319   -1.2666 C.ar    1  UNL1        0.0000
      6 C          -3.7095   -1.5207   -1.2674 C.ar    1  UNL1        0.0000
      7 C          -3.1974   -0.4261   -0.6561 C.ar    1  UNL1        0.0000
      8 C          -1.7398   -0.2204   -0.7172 C.ar    1  UNL1        0.0000
      9 C          -1.1656    0.4131   -1.8187 C.ar    1  UNL1        0.0000
     10 C           0.2104    0.6094   -1.8606 C.ar    1  UNL1        0.0000
     11 C           1.0183    0.1709   -0.7903 C.ar    1  UNL1        0.0000
     12 C           2.4074    0.3777   -0.8473 C.ar    1  UNL1        0.0000
     13 O           3.0620    0.9823   -1.8795 O.2     1  UNL1        0.0000
     14 C           4.3811    0.9963   -1.5724 C.ar    1  UNL1        0.0000
     15 C           5.3721    1.5307   -2.3802 C.ar    1  UNL1        0.0000
     16 C           6.6409    1.4239   -1.8462 C.ar    1  UNL1        0.0000
     17 N           6.9290    0.8586   -0.6524 N.ar    1  UNL1        0.0000
     18 C           5.9240    0.3468    0.1070 C.ar    1  UNL1        0.0000
     19 C           4.5993    0.4011   -0.3371 C.ar    1  UNL1        0.0000
     20 C           3.3042   -0.0080    0.1453 C.ar    1  UNL1        0.0000
     21 C           2.7720   -0.6586    1.3011 C.ar    1  UNL1        0.0000
     22 C           3.6330   -1.0732    2.3434 C.ar    1  UNL1        0.0000
     23 C           3.1382   -1.7087    3.4795 C.ar    1  UNL1        0.0000
     24 C           1.7783   -1.9421    3.5970 C.ar    1  UNL1        0.0000
     25 C           0.9106   -1.5401    2.5779 C.ar    1  UNL1        0.0000
     26 C           1.3646   -0.8906    1.4034 C.ar    1  UNL1        0.0000
     27 C           0.4836   -0.4726    0.3490 C.ar    1  UNL1        0.0000
     28 C          -0.9242   -0.6511    0.3454 C.ar    1  UNL1        0.0000
     29 C          -4.1318    0.4707    0.0307 C.ar    1  UNL1        0.0000
     30 C          -3.8162    1.6041    0.6897 C.2     1  UNL1        0.0000
     31 H          -5.3493    2.4059    2.8869 H       1  UNL1        0.0000
     32 H          -5.6430    3.7218    0.7706 H       1  UNL1        0.0000
     33 H          -7.4356    0.9833    0.8029 H       1  UNL1        0.0000
     34 H          -7.0984   -1.2858   -0.6570 H       1  UNL1        0.0000
     35 H          -5.4523   -2.7321   -1.7857 H       1  UNL1        0.0000
     36 H          -3.0661   -2.2247   -1.7895 H       1  UNL1        0.0000
     37 H          -1.7860    0.7579   -2.6424 H       1  UNL1        0.0000
     38 H           0.6506    1.1044   -2.7235 H       1  UNL1        0.0000
     39 H           5.1646    1.9866   -3.3367 H       1  UNL1        0.0000
     40 H           7.5017    1.8077   -2.3884 H       1  UNL1        0.0000
     41 H           6.2359   -0.0879    1.0475 H       1  UNL1        0.0000
     42 H           4.7025   -0.9112    2.2939 H       1  UNL1        0.0000
     43 H           3.8162   -2.0200    4.2700 H       1  UNL1        0.0000
     44 H           1.3838   -2.4376    4.4806 H       1  UNL1        0.0000
     45 H          -0.1448   -1.7510    2.7283 H       1  UNL1        0.0000
     46 H          -1.4211   -1.1338    1.1833 H       1  UNL1        0.0000
     47 H          -2.8366    2.0361    0.8196 H       1  UNL1        0.0000
@<TRIPOS>BOND
     1     1     2    1
     2     2     3    2
     3     3     4   ar
     4     4     5   ar
     5     5     6   ar
     6     6     7   ar
     7     7     8    1
     8     8     9   ar
     9     9    10   ar
    10    10    11   ar
    11    11    12   ar
    12    12    13   ar
    13    13    14   ar
    14    14    15   ar
    15    15    16   ar
    16    16    17   ar
    17    17    18   ar
    18    18    19   ar
    19    19    20   ar
    20    20    21   ar
    21    21    22   ar
    22    22    23   ar
    23    23    24   ar
    24    24    25   ar
    25    25    26   ar
    26    26    27   ar
    27    27    28   ar
    28     7    29   ar
    29    29    30    2
    30    30     1    1
    31    29     3   ar
    32    28     8   ar
    33    27    11   ar
    34    20    12   ar
    35    26    21   ar
    36    19    14   ar
    37     1    31    1
    38     1    32    1
    39     2    33    1
    40     4    34    1
    41     5    35    1
    42     6    36    1
    43     9    37    1
    44    10    38    1
    45    15    39    1
    46    16    40    1
    47    18    41    1
    48    22    42    1
    49    23    43    1
    50    24    44    1
    51    25    45    1
    52    28    46    1
    53    30    47    1
