@<TRIPOS>MOLECULE
*****
 49 56 0 0 0
SMALL
GASTEIGER

@<TRIPOS>ATOM
      1 SI         -5.8964   -2.6185   -0.4693 Si      1  UNL1        0.0000
      2 C          -6.8815   -1.0541   -0.1721 C.2     1  UNL1        0.0000
      3 C          -6.0621    0.0040   -0.0309 C.ar    1  UNL1        0.0000
      4 C          -6.4908    1.3658    0.2143 C.ar    1  UNL1        0.0000
      5 C          -5.5562    2.3267    0.3378 C.ar    1  UNL1        0.0000
      6 C          -4.1267    2.0393    0.2299 C.ar    1  UNL1        0.0000
      7 C          -3.6443    0.7945    0.0011 C.ar    1  UNL1        0.0000
      8 C          -2.1889    0.6265   -0.0965 C.ar    1  UNL1        0.0000
      9 C          -1.5554    0.5085   -1.3177 C.ar    1  UNL1        0.0000
     10 N          -0.2171    0.3409   -1.4726 N.ar    1  UNL1        0.0000
     11 C           0.6035    0.2740   -0.3983 C.ar    1  UNL1        0.0000
     12 C           0.0183    0.3835    0.8893 C.ar    1  UNL1        0.0000
     13 C          -1.3834    0.5593    1.0310 C.ar    1  UNL1        0.0000
     14 C           0.9541    0.2987    1.9524 C.ar    1  UNL1        0.0000
     15 C           0.5767    0.3818    3.2758 C.ar    1  UNL1        0.0000
     16 S           1.9083    0.2488    4.3345 S.2     1  UNL1        0.0000
     17 C           2.9996    0.0784    3.0230 C.ar    1  UNL1        0.0000
     18 C           2.3871    0.1187    1.7899 C.ar    1  UNL1        0.0000
     19 C           3.0626    0.0003    0.5263 C.ar    1  UNL1        0.0000
     20 C           4.4978   -0.1833    0.2356 C.ar    1  UNL1        0.0000
     21 SI          6.0182   -0.3353    1.3843 Si      1  UNL1        0.0000
     22 C           7.1464   -0.5159   -0.0946 C.2     1  UNL1        0.0000
     23 C           6.4843   -0.4691   -1.2619 C.2     1  UNL1        0.0000
     24 C           5.0482   -0.2887   -1.0814 C.ar    1  UNL1        0.0000
     25 C           4.0818   -0.1992   -2.0621 C.ar    1  UNL1        0.0000
     26 C           4.2690   -0.2613   -3.4175 C.ar    1  UNL1        0.0000
     27 O           3.0687   -0.1328   -4.0480 O.2     1  UNL1        0.0000
     28 C           2.1154    0.0119   -3.0802 C.ar    1  UNL1        0.0000
     29 C           2.6821   -0.0213   -1.8254 C.ar    1  UNL1        0.0000
     30 C           2.0442    0.0937   -0.5484 C.ar    1  UNL1        0.0000
     31 C          -4.6137   -0.2964   -0.1404 C.ar    1  UNL1        0.0000
     32 C          -4.3308   -1.5959   -0.3635 C.2     1  UNL1        0.0000
     33 H          -6.1187   -3.1749   -1.8255 H       1  UNL1        0.0000
     34 H          -6.0191   -3.5823    0.6508 H       1  UNL1        0.0000
     35 H          -7.9586   -1.0626   -0.1284 H       1  UNL1        0.0000
     36 H          -7.5483    1.5899    0.2945 H       1  UNL1        0.0000
     37 H          -5.8459    3.3569    0.5212 H       1  UNL1        0.0000
     38 H          -3.4606    2.8921    0.3386 H       1  UNL1        0.0000
     39 H          -2.1175    0.5445   -2.2478 H       1  UNL1        0.0000
     40 H          -1.8443    0.6370    2.0108 H       1  UNL1        0.0000
     41 H          -0.4065    0.5135    3.7039 H       1  UNL1        0.0000
     42 H           4.0319   -0.0406    3.2948 H       1  UNL1        0.0000
     43 H           5.9667   -1.5643    2.2140 H       1  UNL1        0.0000
     44 H           6.2690    0.9156    2.1419 H       1  UNL1        0.0000
     45 H           8.2112   -0.6422    0.0289 H       1  UNL1        0.0000
     46 H           6.9477   -0.5539   -2.2348 H       1  UNL1        0.0000
     47 H           5.1235   -0.3844   -4.0671 H       1  UNL1        0.0000
     48 H           1.1104    0.1241   -3.4606 H       1  UNL1        0.0000
     49 H          -3.3596   -2.0516   -0.4739 H       1  UNL1        0.0000
@<TRIPOS>BOND
     1     1     2    1
     2     2     3    2
     3     3     4   ar
     4     4     5   ar
     5     5     6   ar
     6     6     7   ar
     7     7     8    1
     8     8     9   ar
     9     9    10   ar
    10    10    11   ar
    11    11    12   ar
    12    12    13   ar
    13    12    14   ar
    14    14    15   ar
    15    15    16   ar
    16    16    17   ar
    17    17    18   ar
    18    18    19   ar
    19    19    20   ar
    20    20    21    1
    21    21    22    1
    22    22    23    2
    23    23    24    1
    24    24    25   ar
    25    25    26   ar
    26    26    27   ar
    27    27    28   ar
    28    28    29   ar
    29    29    30   ar
    30     7    31   ar
    31    31    32    2
    32    32     1    1
    33    31     3   ar
    34    13     8   ar
    35    18    14   ar
    36    30    19   ar
    37    30    11   ar
    38    24    20   ar
    39    29    25   ar
    40     1    33    1
    41     1    34    1
    42     2    35    1
    43     4    36    1
    44     5    37    1
    45     6    38    1
    46     9    39    1
    47    13    40    1
    48    15    41    1
    49    17    42    1
    50    21    43    1
    51    21    44    1
    52    22    45    1
    53    23    46    1
    54    26    47    1
    55    28    48    1
    56    32    49    1
