@<TRIPOS>MOLECULE
*****
 43 49 0 0 0
SMALL
GASTEIGER

@<TRIPOS>ATOM
      1 SI         -5.5197   -0.0957   -2.2443 Si      1  UNL1        0.0000
      2 C          -6.3065   -0.3735   -0.5676 C.2     1  UNL1        0.0000
      3 C          -5.3827   -0.3009    0.4082 C.ar    1  UNL1        0.0000
      4 C          -5.6459   -0.4700    1.8227 C.ar    1  UNL1        0.0000
      5 C          -4.6199   -0.3730    2.6885 C.ar    1  UNL1        0.0000
      6 C          -3.2530   -0.1006    2.2468 C.ar    1  UNL1        0.0000
      7 C          -2.9238    0.0708    0.9442 C.ar    1  UNL1        0.0000
      8 C          -1.5174    0.3491    0.6187 C.ar    1  UNL1        0.0000
      9 C          -1.0920    1.6468    0.3316 C.ar    1  UNL1        0.0000
     10 N           0.1801    1.9943    0.0117 N.ar    1  UNL1        0.0000
     11 C           1.0959    0.9958   -0.0315 C.ar    1  UNL1        0.0000
     12 C           2.4300    1.3883   -0.3724 C.ar    1  UNL1        0.0000
     13 S           3.0788    2.9672   -0.7451 S.2     1  UNL1        0.0000
     14 C           4.6731    2.3028   -0.9838 C.ar    1  UNL1        0.0000
     15 C           5.9814    2.7500   -1.3275 C.ar    1  UNL1        0.0000
     16 C           6.7701    1.6200   -1.3263 C.ar    1  UNL1        0.0000
     17 N           6.0085    0.5279   -1.0024 N.ar    1  UNL1        0.0000
     18 C           4.7190    0.9487   -0.7919 C.ar    1  UNL1        0.0000
     19 C           3.4548    0.4624   -0.4517 C.ar    1  UNL1        0.0000
     20 C           3.1976   -0.9122   -0.1933 C.ar    1  UNL1        0.0000
     21 C           3.9910   -2.0206   -0.1975 C.ar    1  UNL1        0.0000
     22 N           3.1488   -3.0649    0.1352 N.ar    1  UNL1        0.0000
     23 C           1.8615   -2.5984    0.3392 C.ar    1  UNL1        0.0000
     24 C           1.8685   -1.2359    0.1363 C.ar    1  UNL1        0.0000
     25 C           0.7621   -0.3608    0.2413 C.ar    1  UNL1        0.0000
     26 C          -0.5719   -0.6761    0.5700 C.ar    1  UNL1        0.0000
     27 C          -3.9986   -0.0254   -0.0483 C.ar    1  UNL1        0.0000
     28 C          -3.8700    0.1090   -1.3839 C.2     1  UNL1        0.0000
     29 H          -5.9878    1.1572   -2.8841 H       1  UNL1        0.0000
     30 H          -5.5693   -1.3093   -3.0952 H       1  UNL1        0.0000
     31 H          -7.3625   -0.5627   -0.4616 H       1  UNL1        0.0000
     32 H          -6.6560   -0.6703    2.1609 H       1  UNL1        0.0000
     33 H          -4.7848   -0.4935    3.7549 H       1  UNL1        0.0000
     34 H          -2.5026   -0.0352    3.0313 H       1  UNL1        0.0000
     35 H          -1.7932    2.4783    0.3510 H       1  UNL1        0.0000
     36 H           6.2933    3.7623   -1.5443 H       1  UNL1        0.0000
     37 H           7.8262    1.5025   -1.5325 H       1  UNL1        0.0000
     38 H           6.3080   -0.4346   -0.9224 H       1  UNL1        0.0000
     39 H           5.0367   -2.2015   -0.3925 H       1  UNL1        0.0000
     40 H           3.4306   -4.0336    0.2181 H       1  UNL1        0.0000
     41 H           1.0743   -3.2901    0.6076 H       1  UNL1        0.0000
     42 H          -0.8630   -1.7011    0.7767 H       1  UNL1        0.0000
     43 H          -2.9695    0.3066   -1.9437 H       1  UNL1        0.0000
@<TRIPOS>BOND
     1     1     2    1
     2     2     3    2
     3     3     4   ar
     4     4     5   ar
     5     5     6   ar
     6     6     7   ar
     7     7     8    1
     8     8     9   ar
     9     9    10   ar
    10    10    11   ar
    11    11    12   ar
    12    12    13   ar
    13    13    14   ar
    14    14    15   ar
    15    15    16   ar
    16    16    17   ar
    17    17    18   ar
    18    18    19   ar
    19    19    20   ar
    20    20    21   ar
    21    21    22   ar
    22    22    23   ar
    23    23    24   ar
    24    24    25   ar
    25    25    26   ar
    26     7    27   ar
    27    27    28    2
    28    28     1    1
    29    27     3   ar
    30    26     8   ar
    31    25    11   ar
    32    19    12   ar
    33    24    20   ar
    34    18    14   ar
    35     1    29    1
    36     1    30    1
    37     2    31    1
    38     4    32    1
    39     5    33    1
    40     6    34    1
    41     9    35    1
    42    15    36    1
    43    16    37    1
    44    17    38    1
    45    21    39    1
    46    22    40    1
    47    23    41    1
    48    26    42    1
    49    28    43    1
