@<TRIPOS>MOLECULE
*****
 35 40 0 0 0
SMALL
GASTEIGER

@<TRIPOS>ATOM
      1 SI         -4.8124    0.2508   -1.1063 Si      1  UNL1        0.0000
      2 C          -6.2575   -0.0779    0.0408 C.2     1  UNL1        0.0000
      3 C          -5.8388   -0.3568    1.2879 C.2     1  UNL1        0.0000
      4 C          -4.3967   -0.3461    1.4806 C.2     1  UNL1        0.0000
      5 C          -3.6552   -0.0679    0.3859 C.2     1  UNL1        0.0000
      6 C          -2.2199    0.0166    0.3171 C.2     1  UNL1        0.0000
      7 C          -1.4269    0.6541    1.2039 C.2     1  UNL1        0.0000
      8 C           0.0052    0.5645    0.9028 C.ar    1  UNL1        0.0000
      9 C           0.4006   -0.1710   -0.2552 C.ar    1  UNL1        0.0000
     10 SI         -1.2025   -0.8220   -1.0553 Si      1  UNL1        0.0000
     11 C           1.7547   -0.3412   -0.6677 C.ar    1  UNL1        0.0000
     12 C           2.1578   -1.0649   -1.8082 C.ar    1  UNL1        0.0000
     13 N           3.4254   -1.2607   -2.2511 N.ar    1  UNL1        0.0000
     14 C           4.3809   -0.6825   -1.4864 C.ar    1  UNL1        0.0000
     15 C           5.7848   -0.6770   -1.6399 C.ar    1  UNL1        0.0000
     16 C           6.2800    0.0569   -0.5864 C.ar    1  UNL1        0.0000
     17 O           5.2693    0.5039    0.2063 O.2     1  UNL1        0.0000
     18 C           4.1035    0.0530   -0.3415 C.ar    1  UNL1        0.0000
     19 C           2.7988    0.2494    0.1059 C.ar    1  UNL1        0.0000
     20 C           2.4673    0.9978    1.2771 C.ar    1  UNL1        0.0000
     21 N           3.3067    1.6203    2.1231 N.ar    1  UNL1        0.0000
     22 S           2.3809    2.3272    3.3003 S.2     1  UNL1        0.0000
     23 N           0.8603    1.8861    2.8076 N.ar    1  UNL1        0.0000
     24 C           1.0174    1.1596    1.6886 C.ar    1  UNL1        0.0000
     25 H          -4.6538   -0.7954   -2.1478 H       1  UNL1        0.0000
     26 H          -4.7525    1.6568   -1.5757 H       1  UNL1        0.0000
     27 H          -7.2785   -0.0340   -0.3042 H       1  UNL1        0.0000
     28 H          -6.5060   -0.5761    2.1128 H       1  UNL1        0.0000
     29 H          -3.9786   -0.5556    2.4585 H       1  UNL1        0.0000
     30 H          -1.7795    1.1970    2.0730 H       1  UNL1        0.0000
     31 H          -1.2645   -2.3034   -1.0126 H       1  UNL1        0.0000
     32 H          -1.4266   -0.2080   -2.3879 H       1  UNL1        0.0000
     33 H           1.4232   -1.5467   -2.4511 H       1  UNL1        0.0000
     34 H           6.3578   -1.1506   -2.4224 H       1  UNL1        0.0000
     35 H           7.2752    0.3401   -0.2724 H       1  UNL1        0.0000
@<TRIPOS>BOND
     1     1     2    1
     2     2     3    2
     3     3     4    1
     4     4     5    2
     5     5     6    1
     6     6     7    2
     7     7     8    1
     8     8     9   ar
     9     9    10    1
    10     9    11   ar
    11    11    12   ar
    12    12    13   ar
    13    13    14   ar
    14    14    15   ar
    15    15    16   ar
    16    16    17   ar
    17    17    18   ar
    18    18    19   ar
    19    19    20   ar
    20    20    21   ar
    21    21    22   ar
    22    22    23   ar
    23    23    24   ar
    24     5     1    1
    25    10     6    1
    26    19    11   ar
    27    24    20   ar
    28    24     8   ar
    29    18    14   ar
    30     1    25    1
    31     1    26    1
    32     2    27    1
    33     3    28    1
    34     4    29    1
    35     7    30    1
    36    10    31    1
    37    10    32    1
    38    12    33    1
    39    15    34    1
    40    16    35    1
