@<TRIPOS>MOLECULE
*****
 42 48 0 0 0
SMALL
GASTEIGER

@<TRIPOS>ATOM
      1 SI          5.7506    0.8398    0.8796 Si      1  UNL1        0.0000
      2 C           7.2691    0.2068   -0.0385 C.2     1  UNL1        0.0000
      3 C           6.9282   -0.4956   -1.1370 C.2     1  UNL1        0.0000
      4 C           5.4989   -0.6166   -1.3807 C.2     1  UNL1        0.0000
      5 C           4.7047   -0.0560   -0.4441 C.2     1  UNL1        0.0000
      6 C           3.2745   -0.0236   -0.4096 C.2     1  UNL1        0.0000
      7 C           2.4341    0.7145   -1.1692 C.2     1  UNL1        0.0000
      8 C           1.0686    0.4996   -0.8161 C.ar    1  UNL1        0.0000
      9 S          -0.2876    1.2837   -1.4640 S.2     1  UNL1        0.0000
     10 C          -1.4035    0.4504   -0.3967 C.ar    1  UNL1        0.0000
     11 C          -0.6558   -0.4432    0.3845 C.ar    1  UNL1        0.0000
     12 C           0.7112   -0.4030    0.1647 C.ar    1  UNL1        0.0000
     13 SI          2.2918   -1.1630    0.8176 Si      1  UNL1        0.0000
     14 C          -1.3759   -1.2562    1.3189 C.ar    1  UNL1        0.0000
     15 C          -0.9284   -2.2200    2.1782 C.ar    1  UNL1        0.0000
     16 N          -2.0534   -2.6666    2.8391 N.ar    1  UNL1        0.0000
     17 C          -3.1705   -1.9880    2.3862 C.ar    1  UNL1        0.0000
     18 C          -2.7686   -1.0940    1.4135 C.ar    1  UNL1        0.0000
     19 C          -3.6044   -0.2130    0.6964 C.ar    1  UNL1        0.0000
     20 C          -5.0458   -0.1000    0.8824 C.ar    1  UNL1        0.0000
     21 C          -5.8628    0.7995    0.1688 C.ar    1  UNL1        0.0000
     22 C          -5.1023    1.5396   -0.7252 C.ar    1  UNL1        0.0000
     23 C          -5.5818    2.5209   -1.5545 C.ar    1  UNL1        0.0000
     24 O          -4.5536    3.0384   -2.2855 O.2     1  UNL1        0.0000
     25 C          -3.4112    2.3818   -1.9095 C.ar    1  UNL1        0.0000
     26 C          -3.6859    1.4475   -0.9380 C.ar    1  UNL1        0.0000
     27 C          -2.8236    0.5727   -0.2495 C.ar    1  UNL1        0.0000
     28 H           5.6183    2.3195    0.7581 H       1  UNL1        0.0000
     29 H           5.6012    0.2529    2.2398 H       1  UNL1        0.0000
     30 H           8.2655    0.4083    0.3184 H       1  UNL1        0.0000
     31 H           7.6465   -0.9522   -1.8096 H       1  UNL1        0.0000
     32 H           5.1339   -1.1424   -2.2559 H       1  UNL1        0.0000
     33 H           2.7452    1.4172   -1.9337 H       1  UNL1        0.0000
     34 H           2.4668   -2.5997    0.4661 H       1  UNL1        0.0000
     35 H           2.6074   -0.8201    2.2321 H       1  UNL1        0.0000
     36 H           0.0379   -2.6466    2.4013 H       1  UNL1        0.0000
     37 H          -2.0628   -3.3917    3.5485 H       1  UNL1        0.0000
     38 H          -4.1393   -2.2200    2.8059 H       1  UNL1        0.0000
     39 H          -5.5286   -0.7385    1.6225 H       1  UNL1        0.0000
     40 H          -6.9290    0.8865    0.3197 H       1  UNL1        0.0000
     41 H          -6.5536    2.9551   -1.7447 H       1  UNL1        0.0000
     42 H          -2.5261    2.7154   -2.4279 H       1  UNL1        0.0000
@<TRIPOS>BOND
     1     1     2    1
     2     2     3    2
     3     3     4    1
     4     4     5    2
     5     5     6    1
     6     6     7    2
     7     7     8    1
     8     8     9   ar
     9     9    10   ar
    10    10    11   ar
    11    11    12   ar
    12    12    13    1
    13    11    14   ar
    14    14    15   ar
    15    15    16   ar
    16    16    17   ar
    17    17    18   ar
    18    18    19   ar
    19    19    20   ar
    20    20    21   ar
    21    21    22   ar
    22    22    23   ar
    23    23    24   ar
    24    24    25   ar
    25    25    26   ar
    26    26    27   ar
    27     5     1    1
    28    13     6    1
    29    18    14   ar
    30    27    19   ar
    31    12     8   ar
    32    26    22   ar
    33    27    10   ar
    34     1    28    1
    35     1    29    1
    36     2    30    1
    37     3    31    1
    38     4    32    1
    39     7    33    1
    40    13    34    1
    41    13    35    1
    42    15    36    1
    43    16    37    1
    44    17    38    1
    45    20    39    1
    46    21    40    1
    47    23    41    1
    48    25    42    1
