@<TRIPOS>MOLECULE
*****
 33 37 0 0 0
SMALL
GASTEIGER

@<TRIPOS>ATOM
      1 SI          2.2120    0.1815    1.6044 Si      1  UNL1        0.0000
      2 C           3.1608   -0.1748   -0.0004 C.2     1  UNL1        0.0000
      3 C           2.3166   -0.3261   -1.0459 C.2     1  UNL1        0.0000
      4 C           0.8879   -0.1840   -0.7137 C.ar    1  UNL1        0.0000
      5 C          -0.1556   -0.2982   -1.6224 C.ar    1  UNL1        0.0000
      6 C          -1.4756   -0.1478   -1.2170 C.ar    1  UNL1        0.0000
      7 N          -2.4192   -0.2735   -2.1584 N.ar    1  UNL1        0.0000
      8 C          -3.7106   -0.1320   -1.7924 C.ar    1  UNL1        0.0000
      9 C          -4.1401    0.1370   -0.4993 C.ar    1  UNL1        0.0000
     10 C          -5.5010    0.2722   -0.1878 C.ar    1  UNL1        0.0000
     11 C          -5.8565    0.5401    1.1200 C.ar    1  UNL1        0.0000
     12 N          -4.9635    0.6788    2.1156 N.ar    1  UNL1        0.0000
     13 C          -3.6546    0.5428    1.7847 C.ar    1  UNL1        0.0000
     14 C          -3.1577    0.2709    0.4971 C.ar    1  UNL1        0.0000
     15 C          -1.7750    0.1269    0.1448 C.ar    1  UNL1        0.0000
     16 C          -0.7023    0.2418    1.0673 C.ar    1  UNL1        0.0000
     17 C           0.6099    0.0867    0.6338 C.ar    1  UNL1        0.0000
     18 C           4.5791   -0.2740   -0.1119 C.ar    1  UNL1        0.0000
     19 C           5.3682   -0.5307   -1.2309 C.ar    1  UNL1        0.0000
     20 N           6.7375   -0.5711   -1.0487 N.ar    1  UNL1        0.0000
     21 C           7.0047   -0.3449    0.2143 C.ar    1  UNL1        0.0000
     22 S           5.6602   -0.0772    1.2322 S.2     1  UNL1        0.0000
     23 H           2.3214   -0.9156    2.6001 H       1  UNL1        0.0000
     24 H           2.4579    1.5475    2.1341 H       1  UNL1        0.0000
     25 H           2.6074   -0.5355   -2.0673 H       1  UNL1        0.0000
     26 H           0.0497   -0.5079   -2.6690 H       1  UNL1        0.0000
     27 H          -4.4182   -0.2475   -2.6102 H       1  UNL1        0.0000
     28 H          -6.2711    0.1717   -0.9457 H       1  UNL1        0.0000
     29 H          -6.8976    0.6530    1.4085 H       1  UNL1        0.0000
     30 H          -2.9916    0.6670    2.6357 H       1  UNL1        0.0000
     31 H          -0.8861    0.4510    2.1173 H       1  UNL1        0.0000
     32 H           4.9859   -0.7003   -2.2305 H       1  UNL1        0.0000
     33 H           8.0175   -0.3279    0.5951 H       1  UNL1        0.0000
@<TRIPOS>BOND
     1     1     2    1
     2     2     3    2
     3     3     4    1
     4     4     5   ar
     5     5     6   ar
     6     6     7   ar
     7     7     8   ar
     8     8     9   ar
     9     9    10   ar
    10    10    11   ar
    11    11    12   ar
    12    12    13   ar
    13    13    14   ar
    14    14    15   ar
    15    15    16   ar
    16    16    17   ar
    17     2    18    1
    18    18    19   ar
    19    19    20   ar
    20    20    21   ar
    21    21    22   ar
    22    17     1    1
    23    22    18   ar
    24    17     4   ar
    25    15     6   ar
    26    14     9   ar
    27     1    23    1
    28     1    24    1
    29     3    25    1
    30     5    26    1
    31     8    27    1
    32    10    28    1
    33    11    29    1
    34    13    30    1
    35    16    31    1
    36    19    32    1
    37    21    33    1
