@<TRIPOS>MOLECULE
*****
 42 48 0 0 0
SMALL
GASTEIGER

@<TRIPOS>ATOM
      1 SI         -5.2122   -0.7012    1.5778 Si      1  UNL1        0.0000
      2 C          -6.6725    0.4028    1.1242 C.2     1  UNL1        0.0000
      3 C          -6.3594    1.2418    0.1196 C.2     1  UNL1        0.0000
      4 C          -4.9998    1.1257   -0.3847 C.2     1  UNL1        0.0000
      5 C          -4.2482    0.1796    0.2137 C.2     1  UNL1        0.0000
      6 C          -2.8575   -0.1225   -0.0625 C.ar    1  UNL1        0.0000
      7 C          -1.7989    0.6397    0.4815 C.ar    1  UNL1        0.0000
      8 C          -0.4546    0.3080    0.1921 C.ar    1  UNL1        0.0000
      9 N           0.7313    0.9000    0.6135 N.ar    1  UNL1        0.0000
     10 C           1.7974    0.2309    0.0751 C.ar    1  UNL1        0.0000
     11 C           1.2976   -0.8018   -0.7052 C.ar    1  UNL1        0.0000
     12 SI          2.7169   -1.7485   -1.4716 Si      1  UNL1        0.0000
     13 C           3.9843   -0.5545   -0.5876 C.ar    1  UNL1        0.0000
     14 C           5.4044   -0.6011   -0.6616 C.ar    1  UNL1        0.0000
     15 C           6.2180    0.3258    0.0293 C.ar    1  UNL1        0.0000
     16 C           5.4860    1.2657    0.7720 C.ar    1  UNL1        0.0000
     17 C           6.0921    2.2497    1.5127 C.ar    1  UNL1        0.0000
     18 S           4.9306    3.2382    2.3047 S.2     1  UNL1        0.0000
     19 C           3.6092    2.3453    1.6534 C.ar    1  UNL1        0.0000
     20 C           4.0379    1.3176    0.8508 C.ar    1  UNL1        0.0000
     21 C           3.2300    0.4083    0.1730 C.ar    1  UNL1        0.0000
     22 C          -0.0732   -0.7493   -0.6299 C.ar    1  UNL1        0.0000
     23 C          -1.1090   -1.5381   -1.2173 C.ar    1  UNL1        0.0000
     24 C          -0.9413   -2.6012   -2.0548 C.ar    1  UNL1        0.0000
     25 S          -2.4881   -3.2078   -2.5079 S.2     1  UNL1        0.0000
     26 C          -3.3143   -2.0194   -1.5662 C.ar    1  UNL1        0.0000
     27 C          -2.4472   -1.1760   -0.9008 C.ar    1  UNL1        0.0000
     28 H          -5.4905   -2.1257    1.2668 H       1  UNL1        0.0000
     29 H          -4.7016   -0.4018    2.9394 H       1  UNL1        0.0000
     30 H          -7.6175    0.3257    1.6379 H       1  UNL1        0.0000
     31 H          -7.0487    1.9634   -0.3015 H       1  UNL1        0.0000
     32 H          -4.6466    1.7689   -1.1820 H       1  UNL1        0.0000
     33 H          -2.0207    1.4838    1.1307 H       1  UNL1        0.0000
     34 H           0.7772    1.7013    1.2239 H       1  UNL1        0.0000
     35 H           2.8707   -3.1385   -0.9694 H       1  UNL1        0.0000
     36 H           2.8177   -1.6178   -2.9483 H       1  UNL1        0.0000
     37 H           5.8874   -1.3687   -1.2651 H       1  UNL1        0.0000
     38 H           7.2993    0.2954   -0.0233 H       1  UNL1        0.0000
     39 H           7.1468    2.4514    1.6394 H       1  UNL1        0.0000
     40 H           2.6081    2.6480    1.9136 H       1  UNL1        0.0000
     41 H          -0.0453   -3.0639   -2.4374 H       1  UNL1        0.0000
     42 H          -4.3955   -2.0188   -1.5681 H       1  UNL1        0.0000
@<TRIPOS>BOND
     1     1     2    1
     2     2     3    2
     3     3     4    1
     4     4     5    2
     5     5     6    1
     6     6     7   ar
     7     7     8   ar
     8     8     9   ar
     9     9    10   ar
    10    10    11   ar
    11    11    12    1
    12    12    13    1
    13    13    14   ar
    14    14    15   ar
    15    15    16   ar
    16    16    17   ar
    17    17    18   ar
    18    18    19   ar
    19    19    20   ar
    20    20    21   ar
    21    11    22   ar
    22    22    23   ar
    23    23    24   ar
    24    24    25   ar
    25    25    26   ar
    26    26    27   ar
    27     5     1    1
    28    27     6   ar
    29    22     8   ar
    30    27    23   ar
    31    10    21    1
    32    21    13   ar
    33    20    16   ar
    34     1    28    1
    35     1    29    1
    36     2    30    1
    37     3    31    1
    38     4    32    1
    39     7    33    1
    40     9    34    1
    41    12    35    1
    42    12    36    1
    43    14    37    1
    44    15    38    1
    45    17    39    1
    46    19    40    1
    47    24    41    1
    48    26    42    1
