@<TRIPOS>MOLECULE
*****
 38 44 0 0 0
SMALL
GASTEIGER

@<TRIPOS>ATOM
      1 SI          5.6006    0.0235   -1.3567 Si      1  UNL1        0.0000
      2 C           6.9195   -0.4111   -0.0795 C.2     1  UNL1        0.0000
      3 C           6.3639   -0.7051    1.1080 C.2     1  UNL1        0.0000
      4 C           4.9112   -0.6275    1.1520 C.2     1  UNL1        0.0000
      5 C           4.2972   -0.2707   -0.0004 C.2     1  UNL1        0.0000
      6 C           2.8665   -0.1039   -0.2837 C.ar    1  UNL1        0.0000
      7 C           1.9040   -0.3111    0.7048 C.ar    1  UNL1        0.0000
      8 C           0.5727   -0.1245    0.3252 C.ar    1  UNL1        0.0000
      9 N          -0.5902   -0.2505    1.0602 N.ar    1  UNL1        0.0000
     10 C          -1.6973    0.0295    0.2839 C.ar    1  UNL1        0.0000
     11 C          -1.1788    0.3335   -0.9580 C.ar    1  UNL1        0.0000
     12 C           0.2224    0.2497   -0.9743 C.ar    1  UNL1        0.0000
     13 C           1.2444    0.4380   -1.9063 C.ar    1  UNL1        0.0000
     14 N           2.5429    0.2592   -1.5482 N.ar    1  UNL1        0.0000
     15 C          -2.0756    0.6770   -2.0167 C.ar    1  UNL1        0.0000
     16 N          -1.6619    0.9817   -3.2366 N.ar    1  UNL1        0.0000
     17 S          -3.0966    1.2906   -4.0426 S.2     1  UNL1        0.0000
     18 N          -4.2039    1.0274   -2.8151 N.ar    1  UNL1        0.0000
     19 C          -3.5019    0.6843   -1.7125 C.ar    1  UNL1        0.0000
     20 C          -4.0423    0.3683   -0.4214 C.ar    1  UNL1        0.0000
     21 C          -5.4465    0.3850   -0.1569 C.ar    1  UNL1        0.0000
     22 C          -5.9951    0.0783    1.1014 C.ar    1  UNL1        0.0000
     23 C          -5.0777   -0.2574    2.1266 C.ar    1  UNL1        0.0000
     24 N          -5.4019   -0.5789    3.3876 N.ar    1  UNL1        0.0000
     25 S          -3.9778   -0.8837    4.1811 S.2     1  UNL1        0.0000
     26 N          -2.8772   -0.6227    2.9635 N.ar    1  UNL1        0.0000
     27 C          -3.5875   -0.2817    1.8705 C.ar    1  UNL1        0.0000
     28 C          -3.0727    0.0355    0.5811 C.ar    1  UNL1        0.0000
     29 H           5.7472    1.4443   -1.7675 H       1  UNL1        0.0000
     30 H           5.5969   -0.9927   -2.4412 H       1  UNL1        0.0000
     31 H           7.9682   -0.4067   -0.3298 H       1  UNL1        0.0000
     32 H           6.9338   -0.9832    1.9862 H       1  UNL1        0.0000
     33 H           4.4037   -0.8534    2.0808 H       1  UNL1        0.0000
     34 H           2.1599   -0.6007    1.7151 H       1  UNL1        0.0000
     35 H          -0.6408   -0.5122    2.0375 H       1  UNL1        0.0000
     36 H           1.0666    0.7282   -2.9359 H       1  UNL1        0.0000
     37 H          -6.1327    0.6472   -0.9648 H       1  UNL1        0.0000
     38 H          -7.0637    0.0964    1.2825 H       1  UNL1        0.0000
@<TRIPOS>BOND
     1     1     2    1
     2     2     3    2
     3     3     4    1
     4     4     5    2
     5     5     6    1
     6     6     7   ar
     7     7     8   ar
     8     8     9   ar
     9     9    10   ar
    10    10    11   ar
    11    11    12   ar
    12    12    13   ar
    13    13    14   ar
    14    11    15   ar
    15    15    16   ar
    16    16    17   ar
    17    17    18   ar
    18    18    19   ar
    19    19    20   ar
    20    20    21   ar
    21    21    22   ar
    22    22    23   ar
    23    23    24   ar
    24    24    25   ar
    25    25    26   ar
    26    26    27   ar
    27    27    28   ar
    28     5     1    1
    29    14     6   ar
    30    19    15   ar
    31    28    20   ar
    32    12     8   ar
    33    27    23   ar
    34    28    10   ar
    35     1    29    1
    36     1    30    1
    37     2    31    1
    38     3    32    1
    39     4    33    1
    40     7    34    1
    41     9    35    1
    42    13    36    1
    43    21    37    1
    44    22    38    1
