@<TRIPOS>MOLECULE
*****
 40 46 0 0 0
SMALL
GASTEIGER

@<TRIPOS>ATOM
      1 SI          5.1377    1.2258   -0.9548 Si      1  UNL1        0.0000
      2 C           6.6066    0.0456   -0.9245 C.2     1  UNL1        0.0000
      3 C           6.2586   -1.1571   -0.4313 C.2     1  UNL1        0.0000
      4 C           4.8625   -1.2883   -0.0435 C.2     1  UNL1        0.0000
      5 C           4.1146   -0.1790   -0.2132 C.2     1  UNL1        0.0000
      6 C           2.6960   -0.0507    0.0482 C.ar    1  UNL1        0.0000
      7 C           1.6990   -0.6633   -0.7679 C.ar    1  UNL1        0.0000
      8 C           0.3230   -0.5005   -0.4617 C.ar    1  UNL1        0.0000
      9 N          -0.8404   -0.9632   -1.0653 N.ar    1  UNL1        0.0000
     10 C          -1.9252   -0.5051   -0.3409 C.ar    1  UNL1        0.0000
     11 C          -1.4652    0.2402    0.7113 C.ar    1  UNL1        0.0000
     12 O          -2.4832    0.7351    1.4882 O.2     1  UNL1        0.0000
     13 C          -3.6337    0.2736    0.8863 C.ar    1  UNL1        0.0000
     14 C          -4.9690    0.4980    1.2894 C.ar    1  UNL1        0.0000
     15 C          -6.0362   -0.0656    0.5352 C.ar    1  UNL1        0.0000
     16 C          -5.6074   -0.8104   -0.5687 C.ar    1  UNL1        0.0000
     17 C          -6.3965   -1.4707   -1.4788 C.ar    1  UNL1        0.0000
     18 O          -5.6105   -2.0920   -2.4246 O.2     1  UNL1        0.0000
     19 C          -4.2947   -1.8277   -2.1186 C.ar    1  UNL1        0.0000
     20 C          -4.2930   -1.0573   -1.0030 C.ar    1  UNL1        0.0000
     21 C          -3.2966   -0.4726   -0.2145 C.ar    1  UNL1        0.0000
     22 C          -0.0928    0.2389    0.6291 C.ar    1  UNL1        0.0000
     23 C           0.8293    0.8542    1.4829 C.ar    1  UNL1        0.0000
     24 C           0.7058    1.6041    2.6055 C.ar    1  UNL1        0.0000
     25 O           1.9785    1.9147    3.0218 O.2     1  UNL1        0.0000
     26 C           2.8610    1.3395    2.1345 C.ar    1  UNL1        0.0000
     27 C           2.1811    0.6709    1.1408 C.ar    1  UNL1        0.0000
     28 H           4.7354    1.5682   -2.3421 H       1  UNL1        0.0000
     29 H           5.3286    2.3596   -0.0159 H       1  UNL1        0.0000
     30 H           7.5822    0.3508   -1.2683 H       1  UNL1        0.0000
     31 H           6.9466   -1.9865   -0.3215 H       1  UNL1        0.0000
     32 H           4.4831   -2.2247    0.3479 H       1  UNL1        0.0000
     33 H           1.9978   -1.2532   -1.6317 H       1  UNL1        0.0000
     34 H          -0.9137   -1.5402   -1.8929 H       1  UNL1        0.0000
     35 H          -5.1740    1.0981    2.1709 H       1  UNL1        0.0000
     36 H          -7.0737    0.0812    0.8086 H       1  UNL1        0.0000
     37 H          -7.4614   -1.6035   -1.6089 H       1  UNL1        0.0000
     38 H          -3.5596   -2.2566   -2.7825 H       1  UNL1        0.0000
     39 H          -0.1051    1.9823    3.2107 H       1  UNL1        0.0000
     40 H           3.9046    1.5026    2.3639 H       1  UNL1        0.0000
@<TRIPOS>BOND
     1     1     2    1
     2     2     3    2
     3     3     4    1
     4     4     5    2
     5     5     6    1
     6     6     7   ar
     7     7     8   ar
     8     8     9   ar
     9     9    10   ar
    10    10    11   ar
    11    11    12   ar
    12    12    13   ar
    13    13    14   ar
    14    14    15   ar
    15    15    16   ar
    16    16    17   ar
    17    17    18   ar
    18    18    19   ar
    19    19    20   ar
    20    20    21   ar
    21    11    22   ar
    22    22    23   ar
    23    23    24   ar
    24    24    25   ar
    25    25    26   ar
    26    26    27   ar
    27     5     1    1
    28    27     6   ar
    29    22     8   ar
    30    27    23   ar
    31    21    10   ar
    32    21    13   ar
    33    20    16   ar
    34     1    28    1
    35     1    29    1
    36     2    30    1
    37     3    31    1
    38     4    32    1
    39     7    33    1
    40     9    34    1
    41    14    35    1
    42    15    36    1
    43    17    37    1
    44    19    38    1
    45    24    39    1
    46    26    40    1
