@<TRIPOS>MOLECULE
*****
 36 41 0 0 0
SMALL
GASTEIGER

@<TRIPOS>ATOM
      1 SI         -4.4041    0.6638   -1.4135 Si      1  UNL1        0.0000
      2 C          -5.9111    0.4802   -0.2941 C.2     1  UNL1        0.0000
      3 C          -5.5673    0.0028    0.9163 C.2     1  UNL1        0.0000
      4 C          -4.1479   -0.2578    1.1001 C.2     1  UNL1        0.0000
      5 C          -3.3769   -0.0013    0.0242 C.2     1  UNL1        0.0000
      6 C          -1.9349   -0.1344   -0.0582 C.ar    1  UNL1        0.0000
      7 C          -1.0603    0.8698    0.4407 C.ar    1  UNL1        0.0000
      8 C           0.3393    0.7066    0.3372 C.ar    1  UNL1        0.0000
      9 N           1.4045    1.5166    0.7275 N.ar    1  UNL1        0.0000
     10 C           2.5100    0.8329    0.3697 C.ar    1  UNL1        0.0000
     11 C           3.8209    1.0450    0.4587 C.ar    1  UNL1        0.0000
     12 N           4.6005    2.0196    0.9359 N.ar    1  UNL1        0.0000
     13 C           5.8866    1.5630    0.6913 C.ar    1  UNL1        0.0000
     14 C           5.8626    0.3123    0.0670 C.ar    1  UNL1        0.0000
     15 C           4.4884    0.0025   -0.0701 C.ar    1  UNL1        0.0000
     16 N           3.5253   -0.8745   -0.4952 N.ar    1  UNL1        0.0000
     17 C           2.2861   -0.3630   -0.2242 C.ar    1  UNL1        0.0000
     18 C           0.8995   -0.4310   -0.2395 C.ar    1  UNL1        0.0000
     19 C           0.0990   -1.4792   -0.7425 C.ar    1  UNL1        0.0000
     20 C           0.5134   -2.6433   -1.3153 C.ar    1  UNL1        0.0000
     21 S          -0.8768   -3.5716   -1.7329 S.2     1  UNL1        0.0000
     22 C          -1.9629   -2.3704   -1.1229 C.ar    1  UNL1        0.0000
     23 C          -1.3019   -1.2688   -0.6184 C.ar    1  UNL1        0.0000
     24 H          -4.1234    2.0886   -1.7228 H       1  UNL1        0.0000
     25 H          -4.4671   -0.2699   -2.5658 H       1  UNL1        0.0000
     26 H          -6.9009    0.7384   -0.6356 H       1  UNL1        0.0000
     27 H          -6.2744   -0.1818    1.7158 H       1  UNL1        0.0000
     28 H          -3.7690   -0.6283    2.0452 H       1  UNL1        0.0000
     29 H          -1.4712    1.7663    0.8988 H       1  UNL1        0.0000
     30 H           1.3721    2.4188    1.1809 H       1  UNL1        0.0000
     31 H           4.3025    2.8826    1.3710 H       1  UNL1        0.0000
     32 H           6.7299    2.1744    0.9859 H       1  UNL1        0.0000
     33 H           6.7195   -0.2729   -0.2360 H       1  UNL1        0.0000
     34 H           3.7069   -1.7627   -0.9399 H       1  UNL1        0.0000
     35 H           1.5087   -3.0124   -1.5118 H       1  UNL1        0.0000
     36 H          -3.0258   -2.5609   -1.1746 H       1  UNL1        0.0000
@<TRIPOS>BOND
     1     1     2    1
     2     2     3    2
     3     3     4    1
     4     4     5    2
     5     5     6    1
     6     6     7   ar
     7     7     8   ar
     8     8     9   ar
     9     9    10   ar
    10    10    11   ar
    11    11    12   ar
    12    12    13   ar
    13    13    14   ar
    14    14    15   ar
    15    15    16   ar
    16    16    17   ar
    17    17    18   ar
    18    18    19   ar
    19    19    20   ar
    20    20    21   ar
    21    21    22   ar
    22    22    23   ar
    23     5     1    1
    24    23     6   ar
    25    18     8   ar
    26    23    19   ar
    27    17    10   ar
    28    15    11   ar
    29     1    24    1
    30     1    25    1
    31     2    26    1
    32     3    27    1
    33     4    28    1
    34     7    29    1
    35     9    30    1
    36    12    31    1
    37    13    32    1
    38    14    33    1
    39    16    34    1
    40    20    35    1
    41    22    36    1
