@<TRIPOS>MOLECULE
*****
 44 50 0 0 0
SMALL
GASTEIGER

@<TRIPOS>ATOM
      1 SI          6.1118   -0.4102   -0.3242 Si      1  UNL1        0.0000
      2 C           7.1781    0.6263    0.8255 C.2     1  UNL1        0.0000
      3 C           6.4157    1.4217    1.5979 C.2     1  UNL1        0.0000
      4 C           4.9809    1.3050    1.3772 C.2     1  UNL1        0.0000
      5 C           4.6111    0.4176    0.4300 C.2     1  UNL1        0.0000
      6 C           3.2644    0.1643    0.0743 C.ar    1  UNL1        0.0000
      7 C           2.7120   -0.6938   -0.8715 C.ar    1  UNL1        0.0000
      8 C           1.2918   -0.5662   -0.8340 C.ar    1  UNL1        0.0000
      9 C           1.0351    0.3683    0.1491 C.ar    1  UNL1        0.0000
     10 O           2.2090    0.8115    0.6811 O.2     1  UNL1        0.0000
     11 C          -0.2504    0.7744    0.5354 C.ar    1  UNL1        0.0000
     12 N          -0.2775    1.7523    1.4766 N.ar    1  UNL1        0.0000
     13 C          -1.4838    2.1674    1.9057 C.ar    1  UNL1        0.0000
     14 C          -2.6946    1.5955    1.5515 C.ar    1  UNL1        0.0000
     15 C          -3.9067    2.0983    2.1681 C.ar    1  UNL1        0.0000
     16 C          -5.1893    1.5401    2.0107 C.ar    1  UNL1        0.0000
     17 C          -5.0962    0.4015    1.2368 C.ar    1  UNL1        0.0000
     18 C          -6.1140   -0.4835    1.0047 C.ar    1  UNL1        0.0000
     19 O          -5.6256   -1.5588    0.3227 O.2     1  UNL1        0.0000
     20 C          -4.2910   -1.3419    0.1208 C.ar    1  UNL1        0.0000
     21 C          -3.9241   -0.1024    0.5896 C.ar    1  UNL1        0.0000
     22 C          -2.6261    0.5007    0.6129 C.ar    1  UNL1        0.0000
     23 C          -1.3686    0.1542   -0.0525 C.ar    1  UNL1        0.0000
     24 C          -1.1295   -0.6876   -1.2133 C.ar    1  UNL1        0.0000
     25 C          -2.1303   -1.0892   -2.1269 C.ar    1  UNL1        0.0000
     26 C          -1.8761   -1.9380   -3.2119 C.ar    1  UNL1        0.0000
     27 C          -0.5896   -2.3945   -3.4525 C.ar    1  UNL1        0.0000
     28 C           0.4504   -1.9595   -2.6400 C.ar    1  UNL1        0.0000
     29 C           0.1947   -1.0901   -1.5566 C.ar    1  UNL1        0.0000
     30 H           6.2005   -1.8602   -0.0163 H       1  UNL1        0.0000
     31 H           6.3210   -0.0598   -1.7520 H       1  UNL1        0.0000
     32 H           8.2541    0.5547    0.8260 H       1  UNL1        0.0000
     33 H           6.8098    2.1079    2.3375 H       1  UNL1        0.0000
     34 H           4.2851    1.9059    1.9528 H       1  UNL1        0.0000
     35 H           3.2708   -1.3378   -1.5353 H       1  UNL1        0.0000
     36 H          -1.4329    2.9888    2.6172 H       1  UNL1        0.0000
     37 H          -3.8274    2.9613    2.8341 H       1  UNL1        0.0000
     38 H          -6.0743    1.9135    2.5051 H       1  UNL1        0.0000
     39 H          -7.1597   -0.5356    1.2731 H       1  UNL1        0.0000
     40 H          -3.7727   -2.1709   -0.3388 H       1  UNL1        0.0000
     41 H          -3.1393   -0.6939   -2.0451 H       1  UNL1        0.0000
     42 H          -2.6885   -2.2235   -3.8761 H       1  UNL1        0.0000
     43 H          -0.3897   -3.0525   -4.2939 H       1  UNL1        0.0000
     44 H           1.4615   -2.2813   -2.8758 H       1  UNL1        0.0000
@<TRIPOS>BOND
     1     1     2    1
     2     2     3    2
     3     3     4    1
     4     4     5    2
     5     5     6    1
     6     6     7   ar
     7     7     8   ar
     8     8     9   ar
     9     9    10   ar
    10     9    11   ar
    11    11    12   ar
    12    12    13   ar
    13    13    14   ar
    14    14    15   ar
    15    15    16   ar
    16    16    17   ar
    17    17    18   ar
    18    18    19   ar
    19    19    20   ar
    20    20    21   ar
    21    21    22   ar
    22    22    23   ar
    23    23    24   ar
    24    24    25   ar
    25    25    26   ar
    26    26    27   ar
    27    27    28   ar
    28    28    29   ar
    29     5     1    1
    30    10     6   ar
    31    23    11   ar
    32    29    24   ar
    33    29     8   ar
    34    22    14   ar
    35    21    17   ar
    36     1    30    1
    37     1    31    1
    38     2    32    1
    39     3    33    1
    40     4    34    1
    41     7    35    1
    42    13    36    1
    43    15    37    1
    44    16    38    1
    45    18    39    1
    46    20    40    1
    47    25    41    1
    48    26    42    1
    49    27    43    1
    50    28    44    1
