@<TRIPOS>MOLECULE
*****
 50 56 0 0 0
SMALL
GASTEIGER

@<TRIPOS>ATOM
      1 SI          5.8585    0.1356    1.2783 Si      1  UNL1        0.0000
      2 C           7.2564    1.2047    0.6326 C.2     1  UNL1        0.0000
      3 C           6.8074    2.0706   -0.2932 C.2     1  UNL1        0.0000
      4 C           5.3827    1.9865   -0.5783 C.2     1  UNL1        0.0000
      5 C           4.6978    1.0391    0.1025 C.2     1  UNL1        0.0000
      6 C           3.2607    0.7870    0.0145 C.ar    1  UNL1        0.0000
      7 C           2.6656   -0.4416    0.2695 C.ar    1  UNL1        0.0000
      8 C           1.2558   -0.6313    0.1710 C.ar    1  UNL1        0.0000
      9 C           0.6483   -1.9153    0.1906 C.ar    1  UNL1        0.0000
     10 C           1.4077   -3.1166    0.3132 C.ar    1  UNL1        0.0000
     11 C           0.8695   -4.3803    0.0909 C.ar    1  UNL1        0.0000
     12 C          -0.4414   -4.4779   -0.3091 C.ar    1  UNL1        0.0000
     13 C          -1.2137   -3.3186   -0.3818 C.ar    1  UNL1        0.0000
     14 C          -0.7476   -2.0191   -0.0273 C.ar    1  UNL1        0.0000
     15 C          -1.6128   -0.8469    0.0485 C.ar    1  UNL1        0.0000
     16 C          -3.0641   -0.9132    0.1503 C.ar    1  UNL1        0.0000
     17 C          -3.7707   -2.0790    0.5676 C.ar    1  UNL1        0.0000
     18 C          -5.1578   -2.2164    0.5185 C.ar    1  UNL1        0.0000
     19 C          -5.9156   -1.1579    0.0791 C.ar    1  UNL1        0.0000
     20 C          -5.2791    0.0464   -0.2061 C.ar    1  UNL1        0.0000
     21 C          -3.8669    0.2233   -0.1094 C.ar    1  UNL1        0.0000
     22 C          -3.2562    1.5057   -0.1537 C.ar    1  UNL1        0.0000
     23 C          -4.0111    2.7060   -0.3095 C.ar    1  UNL1        0.0000
     24 C          -3.4731    3.9735   -0.1090 C.ar    1  UNL1        0.0000
     25 C          -2.1668    4.0771    0.3042 C.ar    1  UNL1        0.0000
     26 C          -1.3975    2.9183    0.4099 C.ar    1  UNL1        0.0000
     27 C          -1.8636    1.6126    0.0751 C.ar    1  UNL1        0.0000
     28 C          -1.0045    0.4371    0.0199 C.ar    1  UNL1        0.0000
     29 C           0.4477    0.4973   -0.0658 C.ar    1  UNL1        0.0000
     30 C           1.1786    1.6396   -0.4511 C.ar    1  UNL1        0.0000
     31 N           2.5207    1.8194   -0.4052 N.ar    1  UNL1        0.0000
     32 H           5.5624    0.3943    2.7091 H       1  UNL1        0.0000
     33 H           6.0206   -1.2965    0.9186 H       1  UNL1        0.0000
     34 H           8.2685    1.1027    0.9905 H       1  UNL1        0.0000
     35 H           7.4338    2.7917   -0.8039 H       1  UNL1        0.0000
     36 H           4.9244    2.6594   -1.2949 H       1  UNL1        0.0000
     37 H           3.3138   -1.2790    0.4917 H       1  UNL1        0.0000
     38 H           2.4678   -3.0962    0.5472 H       1  UNL1        0.0000
     39 H           1.4922   -5.2666    0.1710 H       1  UNL1        0.0000
     40 H          -0.8716   -5.4405   -0.5706 H       1  UNL1        0.0000
     41 H          -2.2180   -3.4494   -0.7803 H       1  UNL1        0.0000
     42 H          -3.2309   -2.9207    0.9971 H       1  UNL1        0.0000
     43 H          -5.6285   -3.1450    0.8282 H       1  UNL1        0.0000
     44 H          -6.9969   -1.2375    0.0159 H       1  UNL1        0.0000
     45 H          -5.9348    0.8715   -0.4675 H       1  UNL1        0.0000
     46 H          -5.0684    2.6799   -0.5552 H       1  UNL1        0.0000
     47 H          -4.0933    4.8586   -0.2156 H       1  UNL1        0.0000
     48 H          -1.7378    5.0444    0.5501 H       1  UNL1        0.0000
     49 H          -0.3998    3.0604    0.8208 H       1  UNL1        0.0000
     50 H           0.6816    2.5028   -0.8862 H       1  UNL1        0.0000
@<TRIPOS>BOND
     1     1     2    1
     2     2     3    2
     3     3     4    1
     4     4     5    2
     5     5     6    1
     6     6     7   ar
     7     7     8   ar
     8     8     9   ar
     9     9    10   ar
    10    10    11   ar
    11    11    12   ar
    12    12    13   ar
    13    13    14   ar
    14    14    15   ar
    15    15    16   ar
    16    16    17   ar
    17    17    18   ar
    18    18    19   ar
    19    19    20   ar
    20    20    21   ar
    21    21    22   ar
    22    22    23   ar
    23    23    24   ar
    24    24    25   ar
    25    25    26   ar
    26    26    27   ar
    27    27    28   ar
    28    28    29   ar
    29    29    30   ar
    30    30    31   ar
    31     5     1    1
    32    31     6   ar
    33    29     8   ar
    34    14     9   ar
    35    28    15   ar
    36    21    16   ar
    37    27    22   ar
    38     1    32    1
    39     1    33    1
    40     2    34    1
    41     3    35    1
    42     4    36    1
    43     7    37    1
    44    10    38    1
    45    11    39    1
    46    12    40    1
    47    13    41    1
    48    17    42    1
    49    18    43    1
    50    19    44    1
    51    20    45    1
    52    23    46    1
    53    24    47    1
    54    25    48    1
    55    26    49    1
    56    30    50    1
