@<TRIPOS>MOLECULE
*****
 44 50 0 0 0
SMALL
GASTEIGER

@<TRIPOS>ATOM
      1 SI         -5.2084    0.4525   -1.7716 Si      1  UNL1        0.0000
      2 C          -6.7357    0.8447   -0.7397 C.2     1  UNL1        0.0000
      3 C          -6.4559    0.8301    0.5766 C.2     1  UNL1        0.0000
      4 C          -5.0734    0.5283    0.9141 C.2     1  UNL1        0.0000
      5 C          -4.2684    0.2870   -0.1402 C.2     1  UNL1        0.0000
      6 C          -2.8501    0.0027   -0.0922 C.ar    1  UNL1        0.0000
      7 C          -1.8649    0.9962   -0.0542 C.ar    1  UNL1        0.0000
      8 C          -0.4457    0.7107   -0.0020 C.ar    1  UNL1        0.0000
      9 C           0.5295    1.7219   -0.0362 C.ar    1  UNL1        0.0000
     10 C           0.3032    3.0723   -0.1508 C.ar    1  UNL1        0.0000
     11 O           1.4858    3.7423   -0.1673 O.2     1  UNL1        0.0000
     12 C           2.4764    2.8117   -0.0604 C.ar    1  UNL1        0.0000
     13 C           1.9465    1.5450    0.0178 C.ar    1  UNL1        0.0000
     14 C           2.6303    0.3049    0.1709 C.ar    1  UNL1        0.0000
     15 C           4.0333    0.0517    0.2674 C.ar    1  UNL1        0.0000
     16 SI          5.5388    1.1817    0.1156 Si      1  UNL1        0.0000
     17 C           6.6576   -0.2742    0.4332 C.2     1  UNL1        0.0000
     18 C           5.9730   -1.4140    0.6203 C.2     1  UNL1        0.0000
     19 C           4.5125   -1.2523    0.5293 C.ar    1  UNL1        0.0000
     20 C           3.6205   -2.2866    0.7187 C.ar    1  UNL1        0.0000
     21 C           2.2463   -2.0396    0.5990 C.ar    1  UNL1        0.0000
     22 C           1.6793   -0.7838    0.2617 C.ar    1  UNL1        0.0000
     23 C           0.1934   -0.5973    0.0757 C.ar    1  UNL1        0.0000
     24 C          -0.8649   -1.5773   -0.0664 C.ar    1  UNL1        0.0000
     25 C          -0.6635   -2.9181   -0.3184 C.ar    1  UNL1        0.0000
     26 S          -2.1178   -3.8263   -0.3785 S.2     1  UNL1        0.0000
     27 C          -3.0709   -2.4195   -0.2113 C.ar    1  UNL1        0.0000
     28 C          -2.2971   -1.2829   -0.1223 C.ar    1  UNL1        0.0000
     29 H          -4.7675    1.6207   -2.5743 H       1  UNL1        0.0000
     30 H          -5.3477   -0.8389   -2.4896 H       1  UNL1        0.0000
     31 H          -7.6901    1.0460   -1.1998 H       1  UNL1        0.0000
     32 H          -7.1868    1.0281    1.3512 H       1  UNL1        0.0000
     33 H          -4.7466    0.5110    1.9471 H       1  UNL1        0.0000
     34 H          -2.1971    2.0336   -0.0678 H       1  UNL1        0.0000
     35 H          -0.5746    3.6973   -0.2316 H       1  UNL1        0.0000
     36 H           3.4655    3.2403   -0.0503 H       1  UNL1        0.0000
     37 H           5.7003    1.7339   -1.2522 H       1  UNL1        0.0000
     38 H           5.6029    2.1928    1.2002 H       1  UNL1        0.0000
     39 H           7.7308   -0.1640    0.4568 H       1  UNL1        0.0000
     40 H           6.4264   -2.3757    0.8210 H       1  UNL1        0.0000
     41 H           3.9678   -3.2843    0.9730 H       1  UNL1        0.0000
     42 H           1.6077   -2.8796    0.8502 H       1  UNL1        0.0000
     43 H           0.2479   -3.4630   -0.4995 H       1  UNL1        0.0000
     44 H          -4.1485   -2.5102   -0.2229 H       1  UNL1        0.0000
@<TRIPOS>BOND
     1     1     2    1
     2     2     3    2
     3     3     4    1
     4     4     5    2
     5     5     6    1
     6     6     7   ar
     7     7     8   ar
     8     8     9   ar
     9     9    10   ar
    10    10    11   ar
    11    11    12   ar
    12    12    13   ar
    13    13    14   ar
    14    14    15   ar
    15    15    16    1
    16    16    17    1
    17    17    18    2
    18    18    19    1
    19    19    20   ar
    20    20    21   ar
    21    21    22   ar
    22    22    23   ar
    23    23    24   ar
    24    24    25   ar
    25    25    26   ar
    26    26    27   ar
    27    27    28   ar
    28     5     1    1
    29    28     6   ar
    30    23     8   ar
    31    28    24   ar
    32    13     9   ar
    33    22    14   ar
    34    19    15   ar
    35     1    29    1
    36     1    30    1
    37     2    31    1
    38     3    32    1
    39     4    33    1
    40     7    34    1
    41    10    35    1
    42    12    36    1
    43    16    37    1
    44    16    38    1
    45    17    39    1
    46    18    40    1
    47    20    41    1
    48    21    42    1
    49    25    43    1
    50    27    44    1
