@<TRIPOS>MOLECULE
*****
 41 47 0 0 0
SMALL
GASTEIGER

@<TRIPOS>ATOM
      1 SI          6.0287   -0.2937   -0.3258 Si      1  UNL1        0.0000
      2 C           7.0345    0.9419    0.6702 C.2     1  UNL1        0.0000
      3 C           6.2301    1.7719    1.3588 C.2     1  UNL1        0.0000
      4 C           4.8036    1.5356    1.1845 C.2     1  UNL1        0.0000
      5 C           4.4822    0.5187    0.3575 C.2     1  UNL1        0.0000
      6 C           3.1515    0.1333    0.0608 C.ar    1  UNL1        0.0000
      7 C           2.6593   -0.8784   -0.7723 C.ar    1  UNL1        0.0000
      8 C           1.2738   -0.8026   -0.6810 C.ar    1  UNL1        0.0000
      9 C           0.2307   -1.5067   -1.3260 C.ar    1  UNL1        0.0000
     10 C           0.4214   -2.4658   -2.2759 C.ar    1  UNL1        0.0000
     11 S          -1.1125   -2.9175   -2.9031 S.2     1  UNL1        0.0000
     12 C          -1.9404   -1.7891   -1.8863 C.ar    1  UNL1        0.0000
     13 C          -1.1098   -1.1506   -0.9892 C.ar    1  UNL1        0.0000
     14 C          -1.5490   -0.1711   -0.0241 C.ar    1  UNL1        0.0000
     15 C          -0.4325    0.5584    0.4721 C.ar    1  UNL1        0.0000
     16 C          -0.6566    1.6676    1.2794 C.ar    1  UNL1        0.0000
     17 N          -1.8819    2.1197    1.6321 N.ar    1  UNL1        0.0000
     18 C          -2.9640    1.4219    1.2742 C.ar    1  UNL1        0.0000
     19 C          -4.2018    1.9506    1.7439 C.ar    1  UNL1        0.0000
     20 C          -5.4801    1.3691    1.5906 C.ar    1  UNL1        0.0000
     21 C          -5.3494    0.1527    0.9552 C.ar    1  UNL1        0.0000
     22 C          -6.3519   -0.7558    0.7528 C.ar    1  UNL1        0.0000
     23 O          -5.8222   -1.8918    0.2140 O.2     1  UNL1        0.0000
     24 C          -4.4766   -1.6892    0.0729 C.ar    1  UNL1        0.0000
     25 C          -4.1411   -0.4101    0.4435 C.ar    1  UNL1        0.0000
     26 C          -2.8562    0.2137    0.4944 C.ar    1  UNL1        0.0000
     27 C           0.9044    0.2083    0.1617 C.ar    1  UNL1        0.0000
     28 O           2.0545    0.7906    0.6162 O.2     1  UNL1        0.0000
     29 H           6.2145   -1.6870    0.1519 H       1  UNL1        0.0000
     30 H           6.1890   -0.1020   -1.7893 H       1  UNL1        0.0000
     31 H           8.1129    0.9427    0.6568 H       1  UNL1        0.0000
     32 H           6.5878    2.5661    2.0029 H       1  UNL1        0.0000
     33 H           4.0798    2.1556    1.7011 H       1  UNL1        0.0000
     34 H           3.2491   -1.5619   -1.3655 H       1  UNL1        0.0000
     35 H           1.3331   -2.8955   -2.6664 H       1  UNL1        0.0000
     36 H          -2.9976   -1.6613   -2.0566 H       1  UNL1        0.0000
     37 H           0.1671    2.2658    1.6637 H       1  UNL1        0.0000
     38 H          -4.1498    2.8912    2.2981 H       1  UNL1        0.0000
     39 H          -6.3869    1.7996    1.9892 H       1  UNL1        0.0000
     40 H          -7.4129   -0.7849    0.9571 H       1  UNL1        0.0000
     41 H          -3.9350   -2.5601   -0.2642 H       1  UNL1        0.0000
@<TRIPOS>BOND
     1     1     2    1
     2     2     3    2
     3     3     4    1
     4     4     5    2
     5     5     6    1
     6     6     7   ar
     7     7     8   ar
     8     8     9   ar
     9     9    10   ar
    10    10    11   ar
    11    11    12   ar
    12    12    13   ar
    13    13    14   ar
    14    14    15   ar
    15    15    16   ar
    16    16    17   ar
    17    17    18   ar
    18    18    19   ar
    19    19    20   ar
    20    20    21   ar
    21    21    22   ar
    22    22    23   ar
    23    23    24   ar
    24    24    25   ar
    25    25    26   ar
    26    15    27   ar
    27    27    28   ar
    28     5     1    1
    29    28     6   ar
    30    27     8   ar
    31    13     9   ar
    32    26    14   ar
    33    26    18   ar
    34    25    21   ar
    35     1    29    1
    36     1    30    1
    37     2    31    1
    38     3    32    1
    39     4    33    1
    40     7    34    1
    41    10    35    1
    42    12    36    1
    43    16    37    1
    44    19    38    1
    45    20    39    1
    46    22    40    1
    47    24    41    1
