@<TRIPOS>MOLECULE
*****
 36 42 0 0 0
SMALL
GASTEIGER

@<TRIPOS>ATOM
      1 SI          5.5015    0.8501    0.6796 Si      1  UNL1        0.0000
      2 C           6.7942   -0.1374   -0.2648 C.2     1  UNL1        0.0000
      3 C           6.2234   -1.1186   -0.9866 C.2     1  UNL1        0.0000
      4 C           4.7731   -1.2038   -0.8835 C.2     1  UNL1        0.0000
      5 C           4.1949   -0.2871   -0.0788 C.2     1  UNL1        0.0000
      6 C           2.8061   -0.1661    0.1879 C.ar    1  UNL1        0.0000
      7 C           2.1599    0.1565    1.3805 C.ar    1  UNL1        0.0000
      8 C           0.7654    0.1855    1.2055 C.ar    1  UNL1        0.0000
      9 C          -0.2332    0.4752    2.1909 C.ar    1  UNL1        0.0000
     10 N           0.1071    0.7644    3.4446 N.ar    1  UNL1        0.0000
     11 S          -1.3842    1.0209    4.1946 S.2     1  UNL1        0.0000
     12 N          -2.4347    0.7612    2.9065 N.ar    1  UNL1        0.0000
     13 C          -1.6363    0.4728    1.8878 C.ar    1  UNL1        0.0000
     14 C          -2.1135    0.1772    0.5699 C.ar    1  UNL1        0.0000
     15 C          -1.1622   -0.1018   -0.3813 C.ar    1  UNL1        0.0000
     16 N          -1.7953   -0.3566   -1.5652 N.ar    1  UNL1        0.0000
     17 C          -3.1682   -0.2444   -1.3905 C.ar    1  UNL1        0.0000
     18 C          -4.2101   -0.4167   -2.3199 C.ar    1  UNL1        0.0000
     19 C          -5.5415   -0.2496   -1.9094 C.ar    1  UNL1        0.0000
     20 C          -5.7636    0.0897   -0.5563 C.ar    1  UNL1        0.0000
     21 N          -6.9712    0.2880    0.0086 N.ar    1  UNL1        0.0000
     22 S          -6.6900    0.6633    1.6161 S.2     1  UNL1        0.0000
     23 N          -5.0223    0.5896    1.6611 N.ar    1  UNL1        0.0000
     24 C          -4.6970    0.2723    0.4207 C.ar    1  UNL1        0.0000
     25 C          -3.3536    0.0904   -0.0482 C.ar    1  UNL1        0.0000
     26 C           0.3410   -0.0996   -0.0571 C.ar    1  UNL1        0.0000
     27 S           1.6350   -0.4163   -1.0876 S.2     1  UNL1        0.0000
     28 H           5.6330    0.6784    2.1486 H       1  UNL1        0.0000
     29 H           5.4103    2.2494    0.1924 H       1  UNL1        0.0000
     30 H           7.8451    0.0963   -0.1998 H       1  UNL1        0.0000
     31 H           6.7780   -1.8119   -1.6074 H       1  UNL1        0.0000
     32 H           4.2398   -1.9756   -1.4255 H       1  UNL1        0.0000
     33 H           2.6706    0.3472    2.3173 H       1  UNL1        0.0000
     34 H          -1.3355   -0.5906   -2.4352 H       1  UNL1        0.0000
     35 H          -3.9955   -0.6782   -3.3537 H       1  UNL1        0.0000
     36 H          -6.3705   -0.3740   -2.5968 H       1  UNL1        0.0000
@<TRIPOS>BOND
     1     1     2    1
     2     2     3    2
     3     3     4    1
     4     4     5    2
     5     5     6    1
     6     6     7   ar
     7     7     8   ar
     8     8     9   ar
     9     9    10   ar
    10    10    11   ar
    11    11    12   ar
    12    12    13   ar
    13    13    14   ar
    14    14    15   ar
    15    15    16   ar
    16    16    17   ar
    17    17    18   ar
    18    18    19   ar
    19    19    20   ar
    20    20    21   ar
    21    21    22   ar
    22    22    23   ar
    23    23    24   ar
    24    24    25   ar
    25    15    26   ar
    26    26    27   ar
    27     5     1    1
    28    27     6   ar
    29    26     8   ar
    30    13     9   ar
    31    25    14   ar
    32    25    17   ar
    33    24    20   ar
    34     1    28    1
    35     1    29    1
    36     2    30    1
    37     3    31    1
    38     4    32    1
    39     7    33    1
    40    16    34    1
    41    18    35    1
    42    19    36    1
