@<TRIPOS>MOLECULE
*****
 47 54 0 0 0
SMALL
GASTEIGER

@<TRIPOS>ATOM
      1 SI          6.3388    1.7662    0.0547 Si      1  UNL1        0.0000
      2 C           7.8364    0.6379    0.2072 C.2     1  UNL1        0.0000
      3 C           7.4638   -0.6324    0.4465 C.2     1  UNL1        0.0000
      4 C           6.0269   -0.8531    0.5350 C.2     1  UNL1        0.0000
      5 C           5.2604    0.2451    0.3649 C.2     1  UNL1        0.0000
      6 C           3.8427    0.2895    0.4086 C.ar    1  UNL1        0.0000
      7 C           3.0117    1.2565    0.9438 C.ar    1  UNL1        0.0000
      8 C           1.6538    0.9222    0.7566 C.ar    1  UNL1        0.0000
      9 C           0.5720    1.7076    1.2486 C.ar    1  UNL1        0.0000
     10 N           0.7993    2.7969    1.9715 N.ar    1  UNL1        0.0000
     11 S          -0.7368    3.2791    2.3991 S.2     1  UNL1        0.0000
     12 N          -1.6295    2.1054    1.6331 N.ar    1  UNL1        0.0000
     13 C          -0.7892    1.2855    0.9614 C.ar    1  UNL1        0.0000
     14 C          -1.1556    0.1400    0.1597 C.ar    1  UNL1        0.0000
     15 C           0.0236   -0.6847   -0.1141 C.ar    1  UNL1        0.0000
     16 C          -0.3710   -1.9466   -0.5918 C.ar    1  UNL1        0.0000
     17 C           0.4148   -3.0363   -0.8970 C.ar    1  UNL1        0.0000
     18 N          -0.4080   -4.0755   -1.2661 N.ar    1  UNL1        0.0000
     19 C          -1.7179   -3.6798   -1.1860 C.ar    1  UNL1        0.0000
     20 C          -1.7267   -2.3668   -0.7712 C.ar    1  UNL1        0.0000
     21 C          -2.8735   -1.5648   -0.5842 C.ar    1  UNL1        0.0000
     22 C          -4.1846   -2.0583   -0.7463 C.ar    1  UNL1        0.0000
     23 C          -5.2647   -1.2038   -0.6262 C.ar    1  UNL1        0.0000
     24 C          -5.0568    0.1619   -0.4651 C.ar    1  UNL1        0.0000
     25 C          -6.1778    1.0101   -0.4902 C.ar    1  UNL1        0.0000
     26 C          -6.0337    2.3918   -0.4673 C.ar    1  UNL1        0.0000
     27 C          -4.7621    2.9346   -0.4533 C.ar    1  UNL1        0.0000
     28 C          -3.6450    2.0919   -0.4064 C.ar    1  UNL1        0.0000
     29 C          -3.7341    0.6803   -0.3322 C.ar    1  UNL1        0.0000
     30 C          -2.5810   -0.2118   -0.2319 C.ar    1  UNL1        0.0000
     31 C           1.3676   -0.2635    0.1142 C.ar    1  UNL1        0.0000
     32 S           2.8963   -0.9811   -0.2763 S.2     1  UNL1        0.0000
     33 H           6.2740    2.7560    1.1597 H       1  UNL1        0.0000
     34 H           6.1981    2.3146   -1.3177 H       1  UNL1        0.0000
     35 H           8.8421    1.0138    0.1064 H       1  UNL1        0.0000
     36 H           8.1604   -1.4527    0.5705 H       1  UNL1        0.0000
     37 H           5.6460   -1.8473    0.7365 H       1  UNL1        0.0000
     38 H           3.3668    2.1451    1.4533 H       1  UNL1        0.0000
     39 H           1.4791   -3.2111   -0.8868 H       1  UNL1        0.0000
     40 H          -0.0915   -4.9960   -1.5436 H       1  UNL1        0.0000
     41 H          -2.5076   -4.3724   -1.4413 H       1  UNL1        0.0000
     42 H          -4.3699   -3.1066   -0.9589 H       1  UNL1        0.0000
     43 H          -6.2680   -1.6085   -0.7373 H       1  UNL1        0.0000
     44 H          -7.1820    0.5964   -0.5585 H       1  UNL1        0.0000
     45 H          -6.9073    3.0361   -0.4994 H       1  UNL1        0.0000
     46 H          -4.6247    4.0119   -0.4876 H       1  UNL1        0.0000
     47 H          -2.6755    2.5767   -0.4729 H       1  UNL1        0.0000
@<TRIPOS>BOND
     1     1     2    1
     2     2     3    2
     3     3     4    1
     4     4     5    2
     5     5     6    1
     6     6     7   ar
     7     7     8   ar
     8     8     9   ar
     9     9    10   ar
    10    10    11   ar
    11    11    12   ar
    12    12    13   ar
    13    13    14   ar
    14    14    15   ar
    15    15    16   ar
    16    16    17   ar
    17    17    18   ar
    18    18    19   ar
    19    19    20   ar
    20    20    21   ar
    21    21    22   ar
    22    22    23   ar
    23    23    24   ar
    24    24    25   ar
    25    25    26   ar
    26    26    27   ar
    27    27    28   ar
    28    28    29   ar
    29    29    30   ar
    30    15    31   ar
    31    31    32   ar
    32     5     1    1
    33    32     6   ar
    34    31     8   ar
    35    13     9   ar
    36    30    14   ar
    37    20    16   ar
    38    30    21   ar
    39    29    24   ar
    40     1    33    1
    41     1    34    1
    42     2    35    1
    43     3    36    1
    44     4    37    1
    45     7    38    1
    46    17    39    1
    47    18    40    1
    48    19    41    1
    49    22    42    1
    50    23    43    1
    51    25    44    1
    52    26    45    1
    53    27    46    1
    54    28    47    1
