@<TRIPOS>MOLECULE
*****
 31 35 0 0 0
SMALL
GASTEIGER

@<TRIPOS>ATOM
      1 SI          1.4155    1.6719   -0.7071 Si      1  UNL1        0.0000
      2 C           2.4726    0.2651   -0.0203 C.2     1  UNL1        0.0000
      3 C           1.7229   -0.7880    0.3703 C.2     1  UNL1        0.0000
      4 C           0.2710   -0.6062    0.1909 C.ar    1  UNL1        0.0000
      5 C          -0.6852   -1.5580    0.5323 C.ar    1  UNL1        0.0000
      6 C          -2.0454   -1.2509    0.3020 C.ar    1  UNL1        0.0000
      7 S          -3.3877   -2.2941    0.6548 S.2     1  UNL1        0.0000
      8 C          -4.4909   -1.1069    0.0642 C.ar    1  UNL1        0.0000
      9 C          -5.8929   -0.9283   -0.1135 C.ar    1  UNL1        0.0000
     10 C          -6.0393    0.3263   -0.6643 C.ar    1  UNL1        0.0000
     11 N          -4.8071    0.9020   -0.8236 N.ar    1  UNL1        0.0000
     12 C          -3.8568    0.0154   -0.3737 C.ar    1  UNL1        0.0000
     13 C          -2.4347   -0.0239   -0.2548 C.ar    1  UNL1        0.0000
     14 C          -1.4515    0.9359   -0.5979 C.ar    1  UNL1        0.0000
     15 C          -0.1116    0.6256   -0.3680 C.ar    1  UNL1        0.0000
     16 C           3.8939    0.2776    0.0365 C.ar    1  UNL1        0.0000
     17 C           4.7744   -0.7827   -0.1347 C.ar    1  UNL1        0.0000
     18 C           6.1440   -0.4161    0.0054 C.ar    1  UNL1        0.0000
     19 C           6.2874    0.9199    0.2908 C.ar    1  UNL1        0.0000
     20 S           4.7831    1.7174    0.3886 S.2     1  UNL1        0.0000
     21 H           1.4304    2.8993    0.1314 H       1  UNL1        0.0000
     22 H           1.6118    1.8995   -2.1629 H       1  UNL1        0.0000
     23 H           2.1106   -1.7078    0.7892 H       1  UNL1        0.0000
     24 H          -0.4021   -2.5126    0.9645 H       1  UNL1        0.0000
     25 H          -6.6808   -1.6273    0.1310 H       1  UNL1        0.0000
     26 H          -6.9319    0.8630   -0.9594 H       1  UNL1        0.0000
     27 H          -4.5884    1.8158   -1.2010 H       1  UNL1        0.0000
     28 H          -1.7417    1.8895   -1.0290 H       1  UNL1        0.0000
     29 H           4.4466   -1.7902   -0.3625 H       1  UNL1        0.0000
     30 H           6.9780   -1.0994   -0.0969 H       1  UNL1        0.0000
     31 H           7.2056    1.4683    0.4501 H       1  UNL1        0.0000
@<TRIPOS>BOND
     1     1     2    1
     2     2     3    2
     3     3     4    1
     4     4     5   ar
     5     5     6   ar
     6     6     7   ar
     7     7     8   ar
     8     8     9   ar
     9     9    10   ar
    10    10    11   ar
    11    11    12   ar
    12    12    13   ar
    13    13    14   ar
    14    14    15   ar
    15     2    16    1
    16    16    17   ar
    17    17    18   ar
    18    18    19   ar
    19    19    20   ar
    20    15     1    1
    21    20    16   ar
    22    15     4   ar
    23    13     6   ar
    24    12     8   ar
    25     1    21    1
    26     1    22    1
    27     3    23    1
    28     5    24    1
    29     9    25    1
    30    10    26    1
    31    11    27    1
    32    14    28    1
    33    17    29    1
    34    18    30    1
    35    19    31    1
