@<TRIPOS>MOLECULE
*****
 46 53 0 0 0
SMALL
GASTEIGER

@<TRIPOS>ATOM
      1 SI          6.3212   -1.2991    0.2394 Si      1  UNL1        0.0000
      2 C           7.8929   -0.3050    0.4560 C.2     1  UNL1        0.0000
      3 C           7.6193    1.0096    0.5205 C.2     1  UNL1        0.0000
      4 C           6.2093    1.3532    0.4114 C.2     1  UNL1        0.0000
      5 C           5.3499    0.3173    0.2613 C.2     1  UNL1        0.0000
      6 C           3.8945    0.4244    0.1293 C.ar    1  UNL1        0.0000
      7 C           3.0302   -0.6490    0.0151 C.ar    1  UNL1        0.0000
      8 C           1.6390   -0.4131   -0.1053 C.ar    1  UNL1        0.0000
      9 C           0.7292   -1.4964   -0.2672 C.ar    1  UNL1        0.0000
     10 N           1.0822   -2.7919   -0.3700 N.ar    1  UNL1        0.0000
     11 S          -0.2954   -3.6483   -0.6644 S.2     1  UNL1        0.0000
     12 N          -1.4001   -2.4284   -0.6270 N.ar    1  UNL1        0.0000
     13 C          -0.7624   -1.2780   -0.3404 C.ar    1  UNL1        0.0000
     14 C          -1.3796    0.0266   -0.2027 C.ar    1  UNL1        0.0000
     15 C          -0.3741    1.0829   -0.2581 C.ar    1  UNL1        0.0000
     16 C          -0.9554    2.3771   -0.5220 C.ar    1  UNL1        0.0000
     17 N          -0.2834    3.5309   -0.6898 N.ar    1  UNL1        0.0000
     18 S          -1.3675    4.7146   -1.0604 S.2     1  UNL1        0.0000
     19 N          -2.7624    3.8394   -1.0263 N.ar    1  UNL1        0.0000
     20 C          -2.4346    2.5724   -0.7055 C.ar    1  UNL1        0.0000
     21 C          -3.3579    1.4987   -0.5260 C.ar    1  UNL1        0.0000
     22 C          -4.7293    1.7498   -0.7242 C.ar    1  UNL1        0.0000
     23 C          -5.6640    0.7615   -0.4746 C.ar    1  UNL1        0.0000
     24 C          -5.2635   -0.4465    0.0848 C.ar    1  UNL1        0.0000
     25 C          -6.2566   -1.3697    0.4552 C.ar    1  UNL1        0.0000
     26 C          -5.9331   -2.5377    1.1347 C.ar    1  UNL1        0.0000
     27 C          -4.6140   -2.7739    1.4766 C.ar    1  UNL1        0.0000
     28 C          -3.6206   -1.8662    1.0905 C.ar    1  UNL1        0.0000
     29 C          -3.8816   -0.7063    0.3187 C.ar    1  UNL1        0.0000
     30 C          -2.8555    0.2324   -0.1349 C.ar    1  UNL1        0.0000
     31 C           1.0832    0.8800   -0.1251 C.ar    1  UNL1        0.0000
     32 C           2.0681    1.8770   -0.0006 C.ar    1  UNL1        0.0000
     33 N           3.4107    1.6834    0.1246 N.ar    1  UNL1        0.0000
     34 H           6.0260   -2.1581    1.4134 H       1  UNL1        0.0000
     35 H           6.2607   -1.9868   -1.0744 H       1  UNL1        0.0000
     36 H           8.8638   -0.7705    0.5149 H       1  UNL1        0.0000
     37 H           8.3703    1.7804    0.6436 H       1  UNL1        0.0000
     38 H           5.8978    2.3916    0.4513 H       1  UNL1        0.0000
     39 H           3.3923   -1.6715    0.0128 H       1  UNL1        0.0000
     40 H          -5.0751    2.7214   -1.0741 H       1  UNL1        0.0000
     41 H          -6.7156    0.9780   -0.6498 H       1  UNL1        0.0000
     42 H          -7.3049   -1.1700    0.2406 H       1  UNL1        0.0000
     43 H          -6.7112   -3.2373    1.4257 H       1  UNL1        0.0000
     44 H          -4.3465   -3.6571    2.0505 H       1  UNL1        0.0000
     45 H          -2.6162   -2.0750    1.4480 H       1  UNL1        0.0000
     46 H           1.8195    2.9329    0.0333 H       1  UNL1        0.0000
@<TRIPOS>BOND
     1     1     2    1
     2     2     3    2
     3     3     4    1
     4     4     5    2
     5     5     6    1
     6     6     7   ar
     7     7     8   ar
     8     8     9   ar
     9     9    10   ar
    10    10    11   ar
    11    11    12   ar
    12    12    13   ar
    13    13    14   ar
    14    14    15   ar
    15    15    16   ar
    16    16    17   ar
    17    17    18   ar
    18    18    19   ar
    19    19    20   ar
    20    20    21   ar
    21    21    22   ar
    22    22    23   ar
    23    23    24   ar
    24    24    25   ar
    25    25    26   ar
    26    26    27   ar
    27    27    28   ar
    28    28    29   ar
    29    29    30   ar
    30    15    31   ar
    31    31    32   ar
    32    32    33   ar
    33     5     1    1
    34    33     6   ar
    35    31     8   ar
    36    13     9   ar
    37    30    14   ar
    38    20    16   ar
    39    30    21   ar
    40    29    24   ar
    41     1    34    1
    42     1    35    1
    43     2    36    1
    44     3    37    1
    45     4    38    1
    46     7    39    1
    47    22    40    1
    48    23    41    1
    49    25    42    1
    50    26    43    1
    51    27    44    1
    52    28    45    1
    53    32    46    1
