@<TRIPOS>MOLECULE
*****
 41 48 0 0 0
SMALL
GASTEIGER

@<TRIPOS>ATOM
      1 SI          5.5278    1.1051   -2.2506 Si      1  UNL1        0.0000
      2 C           7.1121    0.0926   -2.1924 C.2     1  UNL1        0.0000
      3 C           6.9000   -1.1038   -1.6166 C.2     1  UNL1        0.0000
      4 C           5.5327   -1.3506   -1.1811 C.2     1  UNL1        0.0000
      5 C           4.6546   -0.3471   -1.4016 C.2     1  UNL1        0.0000
      6 C           3.2715   -0.4081   -1.0722 C.ar    1  UNL1        0.0000
      7 C           2.4719   -1.5285   -0.9172 C.ar    1  UNL1        0.0000
      8 C           1.1517   -1.1774   -0.5696 C.ar    1  UNL1        0.0000
      9 C           0.0998   -2.1209   -0.3928 C.ar    1  UNL1        0.0000
     10 N           0.3031   -3.4161   -0.5912 N.ar    1  UNL1        0.0000
     11 S          -1.2153   -4.0644   -0.3685 S.2     1  UNL1        0.0000
     12 N          -2.0681   -2.6800   -0.0146 N.ar    1  UNL1        0.0000
     13 C          -1.2153   -1.6333   -0.0115 C.ar    1  UNL1        0.0000
     14 C          -1.5411   -0.2489    0.2487 C.ar    1  UNL1        0.0000
     15 C          -0.4480    0.6347   -0.0994 C.ar    1  UNL1        0.0000
     16 C          -0.7634    2.0318   -0.1095 C.ar    1  UNL1        0.0000
     17 N           0.0697    3.0403   -0.4263 N.ar    1  UNL1        0.0000
     18 S          -0.7727    4.4520   -0.3480 S.2     1  UNL1        0.0000
     19 N          -2.2518    3.8782    0.0969 N.ar    1  UNL1        0.0000
     20 C          -2.1476    2.5398    0.2183 C.ar    1  UNL1        0.0000
     21 C          -3.2019    1.6642    0.6277 C.ar    1  UNL1        0.0000
     22 C          -4.4931    2.2559    0.9236 C.ar    1  UNL1        0.0000
     23 C          -5.5944    1.5444    1.4116 C.ar    1  UNL1        0.0000
     24 C          -5.2565    0.2224    1.6528 C.ar    1  UNL1        0.0000
     25 C          -6.1598   -0.6238    2.2496 C.ar    1  UNL1        0.0000
     26 S          -5.4530   -2.1444    2.5824 S.2     1  UNL1        0.0000
     27 C          -3.9409   -1.6506    1.9311 C.ar    1  UNL1        0.0000
     28 C          -3.9761   -0.3984    1.3579 C.ar    1  UNL1        0.0000
     29 C          -2.8536    0.2608    0.7271 C.ar    1  UNL1        0.0000
     30 C           0.8598    0.1625   -0.4442 C.ar    1  UNL1        0.0000
     31 S           2.3348    1.0133   -0.7832 S.2     1  UNL1        0.0000
     32 H           5.6332    2.3163   -1.3982 H       1  UNL1        0.0000
     33 H           5.0745    1.3243   -3.6476 H       1  UNL1        0.0000
     34 H           8.0427    0.4730   -2.5825 H       1  UNL1        0.0000
     35 H           7.6721   -1.8506   -1.4753 H       1  UNL1        0.0000
     36 H           5.2860   -2.2953   -0.7112 H       1  UNL1        0.0000
     37 H           2.8286   -2.5422   -1.0611 H       1  UNL1        0.0000
     38 H          -4.6279    3.3292    0.7696 H       1  UNL1        0.0000
     39 H          -6.5455    2.0095    1.6336 H       1  UNL1        0.0000
     40 H          -7.1811   -0.4271    2.5463 H       1  UNL1        0.0000
     41 H          -3.1197   -2.3389    2.0412 H       1  UNL1        0.0000
@<TRIPOS>BOND
     1     1     2    1
     2     2     3    2
     3     3     4    1
     4     4     5    2
     5     5     6    1
     6     6     7   ar
     7     7     8   ar
     8     8     9   ar
     9     9    10   ar
    10    10    11   ar
    11    11    12   ar
    12    12    13   ar
    13    13    14   ar
    14    14    15   ar
    15    15    16   ar
    16    16    17   ar
    17    17    18   ar
    18    18    19   ar
    19    19    20   ar
    20    20    21   ar
    21    21    22   ar
    22    22    23   ar
    23    23    24   ar
    24    24    25   ar
    25    25    26   ar
    26    26    27   ar
    27    27    28   ar
    28    28    29   ar
    29    15    30   ar
    30    30    31   ar
    31     5     1    1
    32    31     6   ar
    33    30     8   ar
    34    13     9   ar
    35    29    14   ar
    36    20    16   ar
    37    29    21   ar
    38    28    24   ar
    39     1    32    1
    40     1    33    1
    41     2    34    1
    42     3    35    1
    43     4    36    1
    44     7    37    1
    45    22    38    1
    46    23    39    1
    47    25    40    1
    48    27    41    1
