@<TRIPOS>MOLECULE
*****
 41 47 0 0 0
SMALL
GASTEIGER

@<TRIPOS>ATOM
      1 SI          5.0729    0.3448    1.0294 Si      1  UNL1        0.0000
      2 C           6.4871    0.2114   -0.2104 C.2     1  UNL1        0.0000
      3 C           6.0280   -0.0533   -1.4472 C.2     1  UNL1        0.0000
      4 C           4.5821   -0.1701   -1.5601 C.2     1  UNL1        0.0000
      5 C           3.9022   -0.0195   -0.4049 C.2     1  UNL1        0.0000
      6 C           2.4639   -0.0340   -0.2491 C.ar    1  UNL1        0.0000
      7 C           1.6047    0.9642   -0.7571 C.ar    1  UNL1        0.0000
      8 C           0.1651    0.9507   -0.5973 C.ar    1  UNL1        0.0000
      9 C          -0.6415    2.0053   -1.1329 C.ar    1  UNL1        0.0000
     10 N          -0.1976    3.0854   -1.8160 N.ar    1  UNL1        0.0000
     11 S          -1.5376    4.0019   -2.2137 S.2     1  UNL1        0.0000
     12 N          -2.7511    3.0768   -1.5390 N.ar    1  UNL1        0.0000
     13 C          -2.0920    2.0582   -1.0095 C.ar    1  UNL1        0.0000
     14 C          -2.7309    0.9871   -0.3094 C.ar    1  UNL1        0.0000
     15 C          -4.0951    0.8011   -0.0527 C.ar    1  UNL1        0.0000
     16 N          -5.1895    1.5356   -0.3683 N.ar    1  UNL1        0.0000
     17 C          -6.3636    1.0291    0.0574 C.ar    1  UNL1        0.0000
     18 C          -6.5212   -0.1502    0.7708 C.ar    1  UNL1        0.0000
     19 C          -5.3978   -0.9050    1.0955 C.ar    1  UNL1        0.0000
     20 C          -4.1734   -0.3947    0.6618 C.ar    1  UNL1        0.0000
     21 N          -2.8892   -0.8769    0.8085 N.ar    1  UNL1        0.0000
     22 C          -1.9633   -0.0424    0.2148 C.ar    1  UNL1        0.0000
     23 C          -0.5617   -0.0917    0.0930 C.ar    1  UNL1        0.0000
     24 C           0.3172   -1.0792    0.5716 C.ar    1  UNL1        0.0000
     25 C           0.0258   -2.2379    1.2544 C.ar    1  UNL1        0.0000
     26 N           1.2148   -2.8990    1.4902 N.ar    1  UNL1        0.0000
     27 C           2.2668   -2.1854    0.9695 C.ar    1  UNL1        0.0000
     28 C           1.7490   -1.0447    0.4047 C.ar    1  UNL1        0.0000
     29 H           5.1341   -0.7486    2.0338 H       1  UNL1        0.0000
     30 H           4.9428    1.7230    1.5652 H       1  UNL1        0.0000
     31 H           7.5147    0.3405    0.0898 H       1  UNL1        0.0000
     32 H           6.6643   -0.1697   -2.3159 H       1  UNL1        0.0000
     33 H           4.1157   -0.3575   -2.5200 H       1  UNL1        0.0000
     34 H           2.0543    1.8000   -1.2974 H       1  UNL1        0.0000
     35 H          -7.2316    1.6299   -0.2038 H       1  UNL1        0.0000
     36 H          -7.5116   -0.4766    1.0704 H       1  UNL1        0.0000
     37 H          -5.4762   -1.8320    1.6514 H       1  UNL1        0.0000
     38 H          -2.6679   -1.7314    1.2928 H       1  UNL1        0.0000
     39 H          -0.8890   -2.6900    1.5998 H       1  UNL1        0.0000
     40 H           1.3005   -3.7882    1.9661 H       1  UNL1        0.0000
     41 H           3.2762   -2.5667    1.0457 H       1  UNL1        0.0000
@<TRIPOS>BOND
     1     1     2    1
     2     2     3    2
     3     3     4    1
     4     4     5    2
     5     5     6    1
     6     6     7   ar
     7     7     8   ar
     8     8     9   ar
     9     9    10   ar
    10    10    11   ar
    11    11    12   ar
    12    12    13   ar
    13    13    14   ar
    14    14    15   ar
    15    15    16   ar
    16    16    17   ar
    17    17    18   ar
    18    18    19   ar
    19    19    20   ar
    20    20    21   ar
    21    21    22   ar
    22    22    23   ar
    23    23    24   ar
    24    24    25   ar
    25    25    26   ar
    26    26    27   ar
    27    27    28   ar
    28     5     1    1
    29    28     6   ar
    30    23     8   ar
    31    28    24   ar
    32    13     9   ar
    33    22    14   ar
    34    20    15   ar
    35     1    29    1
    36     1    30    1
    37     2    31    1
    38     3    32    1
    39     4    33    1
    40     7    34    1
    41    17    35    1
    42    18    36    1
    43    19    37    1
    44    21    38    1
    45    25    39    1
    46    26    40    1
    47    27    41    1
