@<TRIPOS>MOLECULE
*****
 32 37 0 0 0
SMALL
GASTEIGER

@<TRIPOS>ATOM
      1 SI          4.6276    0.8444    0.2651 Si      1  UNL1        0.0000
      2 C           5.8319   -0.5918    0.2754 C.2     1  UNL1        0.0000
      3 C           5.1807   -1.7662    0.2145 C.2     1  UNL1        0.0000
      4 C           3.7277   -1.6729    0.1555 C.2     1  UNL1        0.0000
      5 C           3.2128   -0.4226    0.1692 C.2     1  UNL1        0.0000
      6 C           1.8320   -0.0641    0.1209 C.ar    1  UNL1        0.0000
      7 C           1.2428    1.1921    0.1292 C.ar    1  UNL1        0.0000
      8 C          -0.1645    1.1117    0.0685 C.ar    1  UNL1        0.0000
      9 C          -1.0242    2.2612    0.0628 C.ar    1  UNL1        0.0000
     10 N          -0.5499    3.4977    0.1151 N.ar    1  UNL1        0.0000
     11 S          -1.9410    4.4266    0.0815 S.2     1  UNL1        0.0000
     12 N          -3.1036    3.2270    0.0016 N.ar    1  UNL1        0.0000
     13 C          -2.4553    2.0410   -0.0026 C.ar    1  UNL1        0.0000
     14 C          -3.0509    0.7448   -0.0614 C.ar    1  UNL1        0.0000
     15 C          -4.4701    0.5952   -0.1245 C.ar    1  UNL1        0.0000
     16 C          -5.1038   -0.6531   -0.1837 C.ar    1  UNL1        0.0000
     17 C          -4.2573   -1.7848   -0.1782 C.ar    1  UNL1        0.0000
     18 N          -4.6802   -3.0568   -0.2292 N.ar    1  UNL1        0.0000
     19 S          -3.3235   -4.0065   -0.1977 S.2     1  UNL1        0.0000
     20 N          -2.1422   -2.8513   -0.1181 N.ar    1  UNL1        0.0000
     21 C          -2.7458   -1.6494   -0.1116 C.ar    1  UNL1        0.0000
     22 C          -2.1288   -0.3603   -0.0520 C.ar    1  UNL1        0.0000
     23 C          -0.7220   -0.1509    0.0121 C.ar    1  UNL1        0.0000
     24 S           0.5919   -1.2750    0.0375 S.2     1  UNL1        0.0000
     25 H           4.7439    1.6680   -0.9646 H       1  UNL1        0.0000
     26 H           4.6375    1.5969    1.5449 H       1  UNL1        0.0000
     27 H           6.8988   -0.4421    0.3249 H       1  UNL1        0.0000
     28 H           5.6744   -2.7306    0.2081 H       1  UNL1        0.0000
     29 H           3.1481   -2.5871    0.1050 H       1  UNL1        0.0000
     30 H           1.7950    2.1233    0.1765 H       1  UNL1        0.0000
     31 H          -5.1000    1.4872   -0.1273 H       1  UNL1        0.0000
     32 H          -6.1820   -0.7518   -0.2312 H       1  UNL1        0.0000
@<TRIPOS>BOND
     1     1     2    1
     2     2     3    2
     3     3     4    1
     4     4     5    2
     5     5     6    1
     6     6     7   ar
     7     7     8   ar
     8     8     9   ar
     9     9    10   ar
    10    10    11   ar
    11    11    12   ar
    12    12    13   ar
    13    13    14   ar
    14    14    15   ar
    15    15    16   ar
    16    16    17   ar
    17    17    18   ar
    18    18    19   ar
    19    19    20   ar
    20    20    21   ar
    21    21    22   ar
    22    22    23   ar
    23    23    24   ar
    24     5     1    1
    25    24     6   ar
    26    23     8   ar
    27    13     9   ar
    28    22    14   ar
    29    21    17   ar
    30     1    25    1
    31     1    26    1
    32     2    27    1
    33     3    28    1
    34     4    29    1
    35     7    30    1
    36    15    31    1
    37    16    32    1
