@<TRIPOS>MOLECULE
*****
 41 46 0 0 0
SMALL
GASTEIGER

@<TRIPOS>ATOM
      1 SI         -4.6673    0.2648   -1.2087 Si      1  UNL1        0.0000
      2 C          -5.9484    1.4732   -0.5325 C.2     1  UNL1        0.0000
      3 C          -5.4582    2.1819    0.5012 C.2     1  UNL1        0.0000
      4 C          -4.0838    1.8770    0.8674 C.2     1  UNL1        0.0000
      5 C          -3.4939    0.9202    0.1222 C.2     1  UNL1        0.0000
      6 C          -2.1234    0.4234    0.2564 C.ar    1  UNL1        0.0000
      7 C          -1.1407    1.0821   -0.4915 C.ar    1  UNL1        0.0000
      8 C           0.1978    0.6946   -0.4465 C.ar    1  UNL1        0.0000
      9 C           1.1200    1.4044   -1.2377 C.ar    1  UNL1        0.0000
     10 C           2.4501    1.0080   -1.1890 C.ar    1  UNL1        0.0000
     11 O           3.4746    1.5855   -1.8928 O.2     1  UNL1        0.0000
     12 C           4.6088    0.9033   -1.5626 C.ar    1  UNL1        0.0000
     13 C           5.9541    1.0715   -1.9911 C.2     1  UNL1        0.0000
     14 C           6.7748    0.1695   -1.4091 C.2     1  UNL1        0.0000
     15 SI          5.8154   -1.0038   -0.2192 Si      1  UNL1        0.0000
     16 C           4.2694   -0.0867   -0.6591 C.ar    1  UNL1        0.0000
     17 C           2.9055   -0.0449   -0.4028 C.ar    1  UNL1        0.0000
     18 C           1.9716   -0.7431    0.3834 C.ar    1  UNL1        0.0000
     19 C           0.5904   -0.3902    0.3825 C.ar    1  UNL1        0.0000
     20 C          -0.4087   -1.0674    1.1721 C.ar    1  UNL1        0.0000
     21 C          -0.1082   -2.1550    2.0349 C.ar    1  UNL1        0.0000
     22 C          -1.0784   -2.8023    2.8032 C.ar    1  UNL1        0.0000
     23 C          -2.3932   -2.3826    2.7395 C.ar    1  UNL1        0.0000
     24 C          -2.7306   -1.3206    1.9046 C.ar    1  UNL1        0.0000
     25 C          -1.7685   -0.6491    1.1089 C.ar    1  UNL1        0.0000
     26 H          -5.0772   -1.1438   -0.9825 H       1  UNL1        0.0000
     27 H          -4.2446    0.6269   -2.5849 H       1  UNL1        0.0000
     28 H          -6.9356    1.5442   -0.9609 H       1  UNL1        0.0000
     29 H          -6.0229    2.9332    1.0397 H       1  UNL1        0.0000
     30 H          -3.5970    2.3981    1.6833 H       1  UNL1        0.0000
     31 H          -1.4360    1.9192   -1.1246 H       1  UNL1        0.0000
     32 H           0.8253    2.2337   -1.8710 H       1  UNL1        0.0000
     33 H           6.2529    1.8351   -2.6958 H       1  UNL1        0.0000
     34 H           7.8388    0.0605   -1.5447 H       1  UNL1        0.0000
     35 H           5.8720   -2.4023   -0.7124 H       1  UNL1        0.0000
     36 H           6.2760   -0.8148    1.1788 H       1  UNL1        0.0000
     37 H           2.3430   -1.5597    0.9908 H       1  UNL1        0.0000
     38 H           0.9072   -2.5280    2.1317 H       1  UNL1        0.0000
     39 H          -0.7986   -3.6295    3.4500 H       1  UNL1        0.0000
     40 H          -3.1580   -2.8731    3.3350 H       1  UNL1        0.0000
     41 H          -3.7745   -1.0134    1.8865 H       1  UNL1        0.0000
@<TRIPOS>BOND
     1     1     2    1
     2     2     3    2
     3     3     4    1
     4     4     5    2
     5     5     6    1
     6     6     7   ar
     7     7     8   ar
     8     8     9   ar
     9     9    10   ar
    10    10    11   ar
    11    11    12   ar
    12    12    13    1
    13    13    14    2
    14    14    15    1
    15    15    16    1
    16    16    17   ar
    17    17    18   ar
    18    18    19   ar
    19    19    20   ar
    20    20    21   ar
    21    21    22   ar
    22    22    23   ar
    23    23    24   ar
    24    24    25   ar
    25     5     1    1
    26    25     6   ar
    27    19     8   ar
    28    25    20   ar
    29    17    10   ar
    30    16    12   ar
    31     1    26    1
    32     1    27    1
    33     2    28    1
    34     3    29    1
    35     4    30    1
    36     7    31    1
    37     9    32    1
    38    13    33    1
    39    14    34    1
    40    15    35    1
    41    15    36    1
    42    18    37    1
    43    21    38    1
    44    22    39    1
    45    23    40    1
    46    24    41    1
