@<TRIPOS>MOLECULE
*****
 32 36 0 0 0
SMALL
GASTEIGER

@<TRIPOS>ATOM
      1 SI         -5.1893   -0.0575    0.3845 Si      1  UNL1        0.0000
      2 C          -6.0242   -1.0789   -0.9548 C.2     1  UNL1        0.0000
      3 C          -5.1125   -1.6148   -1.7868 C.2     1  UNL1        0.0000
      4 C          -3.7269   -1.2938   -1.4736 C.2     1  UNL1        0.0000
      5 C          -3.5453   -0.5044   -0.3941 C.2     1  UNL1        0.0000
      6 C          -2.2744   -0.0838    0.0683 C.ar    1  UNL1        0.0000
      7 C          -1.9140    0.7213    1.1516 C.ar    1  UNL1        0.0000
      8 C          -0.5018    0.8369    1.1771 C.ar    1  UNL1        0.0000
      9 C           0.4650    1.4780    1.9746 C.ar    1  UNL1        0.0000
     10 C           1.8584    1.3697    1.6909 C.ar    1  UNL1        0.0000
     11 C           2.3697    0.6201    0.6014 C.ar    1  UNL1        0.0000
     12 C           3.6473    0.3429    0.0945 C.ar    1  UNL1        0.0000
     13 SI          5.4234    0.7761    0.5259 Si      1  UNL1        0.0000
     14 C           5.9763   -0.2715   -0.9813 C.2     1  UNL1        0.0000
     15 C           4.9261   -0.8143   -1.6344 C.2     1  UNL1        0.0000
     16 C           3.6877   -0.4625   -1.0276 C.ar    1  UNL1        0.0000
     17 S           2.1223   -0.9124   -1.5024 S.2     1  UNL1        0.0000
     18 C           1.4496   -0.0290   -0.2116 C.ar    1  UNL1        0.0000
     19 C          -0.0637    0.0944    0.1045 C.ar    1  UNL1        0.0000
     20 O          -1.0997   -0.4579   -0.5634 O.2     1  UNL1        0.0000
     21 H          -5.3794   -0.6440    1.7354 H       1  UNL1        0.0000
     22 H          -5.5195    1.3861    0.2744 H       1  UNL1        0.0000
     23 H          -7.0958   -1.1886   -1.0044 H       1  UNL1        0.0000
     24 H          -5.3596   -2.2420   -2.6346 H       1  UNL1        0.0000
     25 H          -2.9214   -1.6804   -2.0881 H       1  UNL1        0.0000
     26 H          -2.5960    1.1799    1.8534 H       1  UNL1        0.0000
     27 H           0.1495    2.0722    2.8297 H       1  UNL1        0.0000
     28 H           2.5531    1.8909    2.3481 H       1  UNL1        0.0000
     29 H           5.9062    0.1763    1.7946 H       1  UNL1        0.0000
     30 H           5.7663    2.2070    0.3318 H       1  UNL1        0.0000
     31 H           7.0221   -0.3736   -1.2231 H       1  UNL1        0.0000
     32 H           5.0008   -1.4423   -2.5133 H       1  UNL1        0.0000
@<TRIPOS>BOND
     1     1     2    1
     2     2     3    2
     3     3     4    1
     4     4     5    2
     5     5     6    1
     6     6     7   ar
     7     7     8   ar
     8     8     9   ar
     9     9    10   ar
    10    10    11   ar
    11    11    12   ar
    12    12    13    1
    13    13    14    1
    14    14    15    2
    15    15    16    1
    16    16    17   ar
    17    17    18   ar
    18    18    19   ar
    19    19    20   ar
    20     5     1    1
    21    20     6   ar
    22    19     8   ar
    23    18    11   ar
    24    16    12   ar
    25     1    21    1
    26     1    22    1
    27     2    23    1
    28     3    24    1
    29     4    25    1
    30     7    26    1
    31     9    27    1
    32    10    28    1
    33    13    29    1
    34    13    30    1
    35    14    31    1
    36    15    32    1
