@<TRIPOS>MOLECULE
*****
 36 41 0 0 0
SMALL
GASTEIGER

@<TRIPOS>ATOM
      1 SI         -5.7784   -0.0306   -0.7354 Si      1  UNL1        0.0000
      2 C          -6.9366    1.0459    0.2825 C.2     1  UNL1        0.0000
      3 C          -6.2667    1.7015    1.2477 C.2     1  UNL1        0.0000
      4 C          -4.8344    1.4419    1.2968 C.2     1  UNL1        0.0000
      5 C          -4.3722    0.5789    0.3678 C.2     1  UNL1        0.0000
      6 C          -3.0250    0.1639    0.2163 C.ar    1  UNL1        0.0000
      7 C          -2.5137   -1.1045   -0.0387 C.ar    1  UNL1        0.0000
      8 C          -1.0836   -1.1464   -0.1432 C.ar    1  UNL1        0.0000
      9 C          -0.1669   -2.1887   -0.3834 C.ar    1  UNL1        0.0000
     10 N           1.1828   -2.0376   -0.4510 N.ar    1  UNL1        0.0000
     11 C           1.7160   -0.8083   -0.2771 C.ar    1  UNL1        0.0000
     12 C           0.9416    0.3018   -0.0331 C.ar    1  UNL1        0.0000
     13 N           1.7192    1.4186    0.1050 N.ar    1  UNL1        0.0000
     14 C           3.0498    1.0668   -0.0475 C.ar    1  UNL1        0.0000
     15 C           4.2480    1.8322    0.0008 C.ar    1  UNL1        0.0000
     16 C           5.5096    1.2181   -0.1919 C.ar    1  UNL1        0.0000
     17 C           5.4076   -0.1499   -0.4196 C.ar    1  UNL1        0.0000
     18 C           6.4427   -1.0261   -0.6416 C.ar    1  UNL1        0.0000
     19 O           5.9549   -2.3008   -0.8266 O.2     1  UNL1        0.0000
     20 C           4.5846   -2.2402   -0.7213 C.ar    1  UNL1        0.0000
     21 C           4.2579   -0.9458   -0.4766 C.ar    1  UNL1        0.0000
     22 C           3.0123   -0.3060   -0.2806 C.ar    1  UNL1        0.0000
     23 C          -0.5776    0.1192    0.0403 C.ar    1  UNL1        0.0000
     24 S          -1.7291    1.3080    0.3265 S.2     1  UNL1        0.0000
     25 H          -5.6686    0.4414   -2.1384 H       1  UNL1        0.0000
     26 H          -6.0554   -1.4791   -0.5584 H       1  UNL1        0.0000
     27 H          -7.9938    1.0960    0.0752 H       1  UNL1        0.0000
     28 H          -6.7331    2.3788    1.9530 H       1  UNL1        0.0000
     29 H          -4.2235    1.9221    2.0520 H       1  UNL1        0.0000
     30 H          -3.1386   -1.9846   -0.1370 H       1  UNL1        0.0000
     31 H          -0.5131   -3.2081   -0.5334 H       1  UNL1        0.0000
     32 H           1.3771    2.3516    0.2886 H       1  UNL1        0.0000
     33 H           4.2016    2.9030    0.1878 H       1  UNL1        0.0000
     34 H           6.4384    1.7722   -0.1612 H       1  UNL1        0.0000
     35 H           7.5179   -0.9350   -0.7004 H       1  UNL1        0.0000
     36 H           4.0486   -3.1702   -0.8436 H       1  UNL1        0.0000
@<TRIPOS>BOND
     1     1     2    1
     2     2     3    2
     3     3     4    1
     4     4     5    2
     5     5     6    1
     6     6     7   ar
     7     7     8   ar
     8     8     9   ar
     9     9    10   ar
    10    10    11   ar
    11    11    12   ar
    12    12    13   ar
    13    13    14   ar
    14    14    15   ar
    15    15    16   ar
    16    16    17   ar
    17    17    18   ar
    18    18    19   ar
    19    19    20   ar
    20    20    21   ar
    21    21    22   ar
    22    12    23   ar
    23    23    24   ar
    24     5     1    1
    25    24     6   ar
    26    23     8   ar
    27    22    11   ar
    28    22    14   ar
    29    21    17   ar
    30     1    25    1
    31     1    26    1
    32     2    27    1
    33     3    28    1
    34     4    29    1
    35     7    30    1
    36     9    31    1
    37    13    32    1
    38    15    33    1
    39    16    34    1
    40    18    35    1
    41    20    36    1
