@<TRIPOS>MOLECULE
*****
 40 45 0 0 0
SMALL
GASTEIGER

@<TRIPOS>ATOM
      1 SI          5.4839    1.4827    0.8667 Si      1  UNL1        0.0000
      2 C           7.0659    0.5904    0.4154 C.2     1  UNL1        0.0000
      3 C           6.7963   -0.5872   -0.1743 C.2     1  UNL1        0.0000
      4 C           5.3815   -0.8936   -0.3244 C.2     1  UNL1        0.0000
      5 C           4.5135    0.0352    0.1431 C.2     1  UNL1        0.0000
      6 C           3.0485   -0.0580    0.1002 C.ar    1  UNL1        0.0000
      7 C           2.1993    0.9249    0.5902 C.ar    1  UNL1        0.0000
      8 C           0.8438    0.6501    0.4569 C.ar    1  UNL1        0.0000
      9 O          -0.1516    1.4752    0.8689 O.2     1  UNL1        0.0000
     10 C          -1.3276    0.8654    0.5689 C.ar    1  UNL1        0.0000
     11 C          -2.5873    1.3699    0.8223 C.ar    1  UNL1        0.0000
     12 SI         -3.0058    2.9678    1.6166 Si      1  UNL1        0.0000
     13 C          -4.8150    2.5062    1.3917 C.2     1  UNL1        0.0000
     14 C          -4.9838    1.3095    0.7979 C.2     1  UNL1        0.0000
     15 C          -3.7199    0.6146    0.4500 C.ar    1  UNL1        0.0000
     16 C          -3.5782   -0.6404   -0.1735 C.ar    1  UNL1        0.0000
     17 C          -4.6790   -1.4337   -0.5648 C.ar    1  UNL1        0.0000
     18 C          -4.5052   -2.6742   -1.1811 C.ar    1  UNL1        0.0000
     19 C          -3.2263   -3.1561   -1.4233 C.ar    1  UNL1        0.0000
     20 C          -2.1144   -2.4005   -1.0508 C.ar    1  UNL1        0.0000
     21 C          -2.2630   -1.1426   -0.4259 C.ar    1  UNL1        0.0000
     22 C          -1.1124   -0.3699   -0.0449 C.ar    1  UNL1        0.0000
     23 C           0.3190   -0.5001   -0.1129 C.ar    1  UNL1        0.0000
     24 C           1.2404   -1.4349   -0.5793 C.ar    1  UNL1        0.0000
     25 N           2.5748   -1.2004   -0.4659 N.ar    1  UNL1        0.0000
     26 H           5.2963    2.7374    0.0963 H       1  UNL1        0.0000
     27 H           5.3018    1.6157    2.3337 H       1  UNL1        0.0000
     28 H           8.0393    1.0060    0.6214 H       1  UNL1        0.0000
     29 H           7.5538   -1.2785   -0.5227 H       1  UNL1        0.0000
     30 H           5.0738   -1.8238   -0.7899 H       1  UNL1        0.0000
     31 H           2.5240    1.8469    1.0470 H       1  UNL1        0.0000
     32 H          -2.6540    3.0484    3.0567 H       1  UNL1        0.0000
     33 H          -2.6592    4.1643    0.8090 H       1  UNL1        0.0000
     34 H          -5.5974    3.1713    1.7237 H       1  UNL1        0.0000
     35 H          -5.9545    0.8830    0.5885 H       1  UNL1        0.0000
     36 H          -5.6976   -1.0951   -0.3943 H       1  UNL1        0.0000
     37 H          -5.3727   -3.2619   -1.4709 H       1  UNL1        0.0000
     38 H          -3.0911   -4.1222   -1.9033 H       1  UNL1        0.0000
     39 H          -1.1364   -2.8167   -1.2597 H       1  UNL1        0.0000
     40 H           0.9766   -2.3751   -1.0455 H       1  UNL1        0.0000
@<TRIPOS>BOND
     1     1     2    1
     2     2     3    2
     3     3     4    1
     4     4     5    2
     5     5     6    1
     6     6     7   ar
     7     7     8   ar
     8     8     9   ar
     9     9    10   ar
    10    10    11   ar
    11    11    12    1
    12    12    13    1
    13    13    14    2
    14    14    15    1
    15    15    16   ar
    16    16    17   ar
    17    17    18   ar
    18    18    19   ar
    19    19    20   ar
    20    20    21   ar
    21    21    22   ar
    22    22    23   ar
    23    23    24   ar
    24    24    25   ar
    25     5     1    1
    26    25     6   ar
    27    23     8   ar
    28    22    10   ar
    29    15    11   ar
    30    21    16   ar
    31     1    26    1
    32     1    27    1
    33     2    28    1
    34     3    29    1
    35     4    30    1
    36     7    31    1
    37    12    32    1
    38    12    33    1
    39    13    34    1
    40    14    35    1
    41    17    36    1
    42    18    37    1
    43    19    38    1
    44    20    39    1
    45    24    40    1
