@<TRIPOS>MOLECULE
*****
 43 49 0 0 0
SMALL
GASTEIGER

@<TRIPOS>ATOM
      1 SI          5.3943   -0.9652   -1.0309 Si      1  UNL1        0.0000
      2 C           6.8370   -0.5475    0.1098 C.2     1  UNL1        0.0000
      3 C           6.4200    0.1243    1.1986 C.2     1  UNL1        0.0000
      4 C           4.9878    0.3714    1.2642 C.2     1  UNL1        0.0000
      5 C           4.2769   -0.0893    0.2144 C.2     1  UNL1        0.0000
      6 C           2.8396   -0.0229    0.0492 C.ar    1  UNL1        0.0000
      7 C           1.9289   -0.6935    0.8862 C.ar    1  UNL1        0.0000
      8 C           0.5156   -0.6024    0.6971 C.ar    1  UNL1        0.0000
      9 S          -0.6974   -1.2733    1.7208 S.2     1  UNL1        0.0000
     10 C          -2.0182   -0.6876    0.7448 C.ar    1  UNL1        0.0000
     11 C          -1.4860   -0.0894   -0.3979 C.ar    1  UNL1        0.0000
     12 C          -2.4345    0.2203   -1.4416 C.ar    1  UNL1        0.0000
     13 C          -2.1433    0.5004   -2.7465 C.ar    1  UNL1        0.0000
     14 S          -3.5889    0.8125   -3.6203 S.2     1  UNL1        0.0000
     15 C          -4.5671    0.4388   -2.2539 C.ar    1  UNL1        0.0000
     16 C          -3.8184    0.0831   -1.1490 C.ar    1  UNL1        0.0000
     17 C          -4.4036   -0.3798    0.0548 C.ar    1  UNL1        0.0000
     18 C          -5.7868   -0.4930    0.3465 C.ar    1  UNL1        0.0000
     19 C          -6.2078   -1.0252    1.5638 C.ar    1  UNL1        0.0000
     20 C          -5.2692   -1.4560    2.4969 C.ar    1  UNL1        0.0000
     21 C          -3.9013   -1.3522    2.2250 C.ar    1  UNL1        0.0000
     22 C          -3.4371   -0.8072    1.0064 C.ar    1  UNL1        0.0000
     23 C          -0.0929    0.0910   -0.3430 C.ar    1  UNL1        0.0000
     24 C           0.8061    0.9025   -1.1264 C.ar    1  UNL1        0.0000
     25 C           0.5661    1.9181   -2.0069 C.ar    1  UNL1        0.0000
     26 N           1.8057    2.3676   -2.4106 N.ar    1  UNL1        0.0000
     27 C           2.7980    1.6917   -1.7304 C.ar    1  UNL1        0.0000
     28 C           2.1935    0.7805   -0.8897 C.ar    1  UNL1        0.0000
     29 H           5.5118   -0.2503   -2.3278 H       1  UNL1        0.0000
     30 H           5.1626   -2.4299   -1.1020 H       1  UNL1        0.0000
     31 H           7.8479   -0.8343   -0.1320 H       1  UNL1        0.0000
     32 H           7.0795    0.4650    1.9872 H       1  UNL1        0.0000
     33 H           4.5542    0.8883    2.1120 H       1  UNL1        0.0000
     34 H           2.3093   -1.2901    1.7143 H       1  UNL1        0.0000
     35 H          -1.1986    0.5196   -3.2663 H       1  UNL1        0.0000
     36 H          -5.6405    0.4695   -2.3717 H       1  UNL1        0.0000
     37 H          -6.5381   -0.1740   -0.3694 H       1  UNL1        0.0000
     38 H          -7.2693   -1.1095    1.7823 H       1  UNL1        0.0000
     39 H          -5.5999   -1.8744    3.4447 H       1  UNL1        0.0000
     40 H          -3.2065   -1.6959    2.9876 H       1  UNL1        0.0000
     41 H          -0.3277    2.4074   -2.3646 H       1  UNL1        0.0000
     42 H           1.9644    3.1265   -3.0612 H       1  UNL1        0.0000
     43 H           3.8340    1.9642   -1.8814 H       1  UNL1        0.0000
@<TRIPOS>BOND
     1     1     2    1
     2     2     3    2
     3     3     4    1
     4     4     5    2
     5     5     6    1
     6     6     7   ar
     7     7     8   ar
     8     8     9   ar
     9     9    10   ar
    10    10    11   ar
    11    11    12   ar
    12    12    13   ar
    13    13    14   ar
    14    14    15   ar
    15    15    16   ar
    16    16    17   ar
    17    17    18   ar
    18    18    19   ar
    19    19    20   ar
    20    20    21   ar
    21    21    22   ar
    22    11    23   ar
    23    23    24   ar
    24    24    25   ar
    25    25    26   ar
    26    26    27   ar
    27    27    28   ar
    28     5     1    1
    29    28     6   ar
    30    23     8   ar
    31    28    24   ar
    32    22    10   ar
    33    16    12   ar
    34    22    17   ar
    35     1    29    1
    36     1    30    1
    37     2    31    1
    38     3    32    1
    39     4    33    1
    40     7    34    1
    41    13    35    1
    42    15    36    1
    43    18    37    1
    44    19    38    1
    45    20    39    1
    46    21    40    1
    47    25    41    1
    48    26    42    1
    49    27    43    1
