@<TRIPOS>MOLECULE
*****
 31 35 0 0 0
SMALL
GASTEIGER

@<TRIPOS>ATOM
      1 SI          5.0399    0.5647   -0.9232 Si      1  UNL1        0.0000
      2 C           6.2557    0.1580    0.4546 C.2     1  UNL1        0.0000
      3 C           5.6324   -0.4215    1.4967 C.2     1  UNL1        0.0000
      4 C           4.1965   -0.6061    1.3377 C.2     1  UNL1        0.0000
      5 C           3.6858   -0.1698    0.1674 C.2     1  UNL1        0.0000
      6 C           2.3229   -0.2445   -0.2233 C.ar    1  UNL1        0.0000
      7 C           1.7948   -0.6636   -1.4486 C.ar    1  UNL1        0.0000
      8 C           0.3777   -0.5771   -1.4495 C.ar    1  UNL1        0.0000
      9 S          -1.0458   -0.8441   -2.4084 S.2     1  UNL1        0.0000
     10 C          -2.1809   -0.3369   -1.2204 C.ar    1  UNL1        0.0000
     11 C          -3.5323   -0.1140   -0.8400 C.ar    1  UNL1        0.0000
     12 C          -4.7784   -0.2701   -1.4704 C.ar    1  UNL1        0.0000
     13 C          -5.9397    0.0611   -0.7647 C.ar    1  UNL1        0.0000
     14 C          -5.8684    0.5388    0.5429 C.ar    1  UNL1        0.0000
     15 C          -4.6389    0.7024    1.1907 C.ar    1  UNL1        0.0000
     16 C          -3.4744    0.3713    0.4861 C.ar    1  UNL1        0.0000
     17 N          -2.1526    0.4423    0.8985 N.ar    1  UNL1        0.0000
     18 C          -1.4250    0.0118   -0.1490 C.ar    1  UNL1        0.0000
     19 C          -0.0713   -0.1088   -0.2509 C.ar    1  UNL1        0.0000
     20 S           1.0771    0.2493    0.9152 S.2     1  UNL1        0.0000
     21 H           5.2934   -0.2396   -2.1458 H       1  UNL1        0.0000
     22 H           4.9023    2.0288   -1.1256 H       1  UNL1        0.0000
     23 H           7.3067    0.3840    0.3680 H       1  UNL1        0.0000
     24 H           6.1367   -0.7396    2.4011 H       1  UNL1        0.0000
     25 H           3.6196   -1.0756    2.1256 H       1  UNL1        0.0000
     26 H           2.3846   -1.0170   -2.2849 H       1  UNL1        0.0000
     27 H          -4.8403   -0.6419   -2.4888 H       1  UNL1        0.0000
     28 H          -6.9089   -0.0562   -1.2437 H       1  UNL1        0.0000
     29 H          -6.7859    0.7897    1.0712 H       1  UNL1        0.0000
     30 H          -4.5968    1.0753    2.2093 H       1  UNL1        0.0000
     31 H          -1.7864    0.7488    1.7908 H       1  UNL1        0.0000
@<TRIPOS>BOND
     1     1     2    1
     2     2     3    2
     3     3     4    1
     4     4     5    2
     5     5     6    1
     6     6     7   ar
     7     7     8   ar
     8     8     9   ar
     9     9    10   ar
    10    10    11   ar
    11    11    12   ar
    12    12    13   ar
    13    13    14   ar
    14    14    15   ar
    15    15    16   ar
    16    16    17   ar
    17    17    18   ar
    18    18    19   ar
    19    19    20   ar
    20     5     1    1
    21    20     6   ar
    22    19     8   ar
    23    18    10   ar
    24    16    11   ar
    25     1    21    1
    26     1    22    1
    27     2    23    1
    28     3    24    1
    29     4    25    1
    30     7    26    1
    31    12    27    1
    32    13    28    1
    33    14    29    1
    34    15    30    1
    35    17    31    1
