@<TRIPOS>MOLECULE
*****
 42 48 0 0 0
SMALL
GASTEIGER

@<TRIPOS>ATOM
      1 SI          2.9774    0.0764   -1.2753 Si      1  UNL1        0.0000
      2 C           4.0475   -0.0781    0.2559 C.2     1  UNL1        0.0000
      3 C           3.3037   -0.1136    1.3782 C.2     1  UNL1        0.0000
      4 C           1.8513   -0.0239    1.1421 C.ar    1  UNL1        0.0000
      5 C           0.9187   -0.0213    2.1581 C.ar    1  UNL1        0.0000
      6 C          -0.4439    0.0608    1.8414 C.ar    1  UNL1        0.0000
      7 C          -0.9614    0.1256    0.5242 C.ar    1  UNL1        0.0000
      8 C           0.0390    0.1889   -0.5217 C.ar    1  UNL1        0.0000
      9 C           1.4283    0.0893   -0.2014 C.ar    1  UNL1        0.0000
     10 C          -0.5823    0.3721   -1.7913 C.ar    1  UNL1        0.0000
     11 C           0.0118    0.5087   -3.0243 C.ar    1  UNL1        0.0000
     12 O          -0.9281    0.6882   -3.9955 O.2     1  UNL1        0.0000
     13 C          -2.1425    0.6714   -3.3851 C.ar    1  UNL1        0.0000
     14 C          -1.9869    0.4827   -2.0333 C.ar    1  UNL1        0.0000
     15 C          -3.0152    0.3995   -1.0798 C.ar    1  UNL1        0.0000
     16 C          -4.4265    0.5246   -1.4296 C.ar    1  UNL1        0.0000
     17 C          -5.4715    0.4019   -0.5074 C.ar    1  UNL1        0.0000
     18 C          -4.9619    0.1094    0.7426 C.ar    1  UNL1        0.0000
     19 C          -5.7541   -0.1423    1.8328 C.ar    1  UNL1        0.0000
     20 N          -4.9109   -0.4621    2.8650 N.ar    1  UNL1        0.0000
     21 C          -3.5992   -0.4249    2.4342 C.ar    1  UNL1        0.0000
     22 C          -3.5768   -0.0144    1.1181 C.ar    1  UNL1        0.0000
     23 C          -2.4418    0.1644    0.2456 C.ar    1  UNL1        0.0000
     24 C           5.4643   -0.1416    0.2031 C.ar    1  UNL1        0.0000
     25 C           6.3660    0.4615   -0.6668 C.ar    1  UNL1        0.0000
     26 N           7.7058    0.1848   -0.4726 N.ar    1  UNL1        0.0000
     27 C           7.8302   -0.6263    0.5510 C.ar    1  UNL1        0.0000
     28 S           6.3799   -1.0980    1.3231 S.2     1  UNL1        0.0000
     29 H           3.0462   -1.1186   -2.1544 H       1  UNL1        0.0000
     30 H           3.1899    1.3637   -1.9867 H       1  UNL1        0.0000
     31 H           3.6907   -0.1888    2.3864 H       1  UNL1        0.0000
     32 H           1.2250   -0.0717    3.1994 H       1  UNL1        0.0000
     33 H          -1.1087    0.1212    2.6927 H       1  UNL1        0.0000
     34 H           1.0209    0.5130   -3.4028 H       1  UNL1        0.0000
     35 H          -2.9866    0.8024   -4.0469 H       1  UNL1        0.0000
     36 H          -4.7030    0.7194   -2.4646 H       1  UNL1        0.0000
     37 H          -6.5164    0.4854   -0.7675 H       1  UNL1        0.0000
     38 H          -6.8273   -0.1496    1.9680 H       1  UNL1        0.0000
     39 H          -5.2059   -0.7282    3.7956 H       1  UNL1        0.0000
     40 H          -2.8374   -0.7306    3.1320 H       1  UNL1        0.0000
     41 H           6.0980    1.1324   -1.4748 H       1  UNL1        0.0000
     42 H           8.7941   -0.9807    0.8921 H       1  UNL1        0.0000
@<TRIPOS>BOND
     1     1     2    1
     2     2     3    2
     3     3     4    1
     4     4     5   ar
     5     5     6   ar
     6     6     7   ar
     7     7     8   ar
     8     8     9   ar
     9     8    10   ar
    10    10    11   ar
    11    11    12   ar
    12    12    13   ar
    13    13    14   ar
    14    14    15   ar
    15    15    16   ar
    16    16    17   ar
    17    17    18   ar
    18    18    19   ar
    19    19    20   ar
    20    20    21   ar
    21    21    22   ar
    22    22    23   ar
    23     2    24    1
    24    24    25   ar
    25    25    26   ar
    26    26    27   ar
    27    27    28   ar
    28     9     1    1
    29    14    10   ar
    30    23    15   ar
    31    28    24   ar
    32     9     4   ar
    33    22    18   ar
    34    23     7   ar
    35     1    29    1
    36     1    30    1
    37     3    31    1
    38     5    32    1
    39     6    33    1
    40    11    34    1
    41    13    35    1
    42    16    36    1
    43    17    37    1
    44    19    38    1
    45    20    39    1
    46    21    40    1
    47    25    41    1
    48    27    42    1
