@<TRIPOS>MOLECULE
*****
 46 52 0 0 0
SMALL
GASTEIGER

@<TRIPOS>ATOM
      1 SI          5.7233    0.2438    1.0053 Si      1  UNL1        0.0000
      2 C           7.1959    0.1362   -0.1641 C.2     1  UNL1        0.0000
      3 C           6.8013   -0.1292   -1.4227 C.2     1  UNL1        0.0000
      4 C           5.3650   -0.2720   -1.6062 C.2     1  UNL1        0.0000
      5 C           4.6212   -0.1126   -0.4912 C.2     1  UNL1        0.0000
      6 C           3.1702   -0.2141   -0.3932 C.ar    1  UNL1        0.0000
      7 C           2.5250   -1.3989   -0.7327 C.ar    1  UNL1        0.0000
      8 C           1.1253   -1.5106   -0.6476 C.ar    1  UNL1        0.0000
      9 C           0.2698   -0.4531   -0.2532 C.ar    1  UNL1        0.0000
     10 C           0.9761    0.7204    0.1412 C.ar    1  UNL1        0.0000
     11 C           2.3897    0.8487    0.0505 C.ar    1  UNL1        0.0000
     12 C           0.1175    1.7152    0.6496 C.ar    1  UNL1        0.0000
     13 C           0.5176    2.9486    1.1125 C.ar    1  UNL1        0.0000
     14 N          -0.6055    3.6115    1.5300 N.ar    1  UNL1        0.0000
     15 C          -1.7135    2.8155    1.3434 C.ar    1  UNL1        0.0000
     16 C          -1.3044    1.6146    0.8045 C.ar    1  UNL1        0.0000
     17 C          -2.1122    0.4967    0.4319 C.ar    1  UNL1        0.0000
     18 C          -3.5607    0.3359    0.5987 C.ar    1  UNL1        0.0000
     19 SI         -4.8598    1.4367    1.4405 Si      1  UNL1        0.0000
     20 C          -6.2081    0.2111    1.0059 C.2     1  UNL1        0.0000
     21 C          -5.7380   -0.8541    0.3362 C.2     1  UNL1        0.0000
     22 C          -4.2951   -0.7880    0.1226 C.ar    1  UNL1        0.0000
     23 C          -3.4970   -1.6915   -0.5523 C.ar    1  UNL1        0.0000
     24 C          -3.9366   -2.8189   -1.2015 C.ar    1  UNL1        0.0000
     25 N          -2.8437   -3.3754   -1.8123 N.ar    1  UNL1        0.0000
     26 C          -1.7249   -2.6082   -1.5647 C.ar    1  UNL1        0.0000
     27 C          -2.0713   -1.5786   -0.7142 C.ar    1  UNL1        0.0000
     28 C          -1.2328   -0.5271   -0.1887 C.ar    1  UNL1        0.0000
     29 H           5.5419    1.6180    1.5393 H       1  UNL1        0.0000
     30 H           5.7342   -0.8558    2.0023 H       1  UNL1        0.0000
     31 H           8.2061    0.2781    0.1854 H       1  UNL1        0.0000
     32 H           7.4813   -0.2336   -2.2592 H       1  UNL1        0.0000
     33 H           4.9533   -0.4854   -2.5856 H       1  UNL1        0.0000
     34 H           3.1012   -2.2665   -1.0483 H       1  UNL1        0.0000
     35 H           0.7243   -2.4956   -0.8497 H       1  UNL1        0.0000
     36 H           2.8649    1.7843    0.3302 H       1  UNL1        0.0000
     37 H           1.4857    3.4240    1.1849 H       1  UNL1        0.0000
     38 H          -0.6216    4.5485    1.9121 H       1  UNL1        0.0000
     39 H          -2.6716    3.2245    1.6144 H       1  UNL1        0.0000
     40 H          -5.0600    2.7367    0.7497 H       1  UNL1        0.0000
     41 H          -4.6676    1.5461    2.9090 H       1  UNL1        0.0000
     42 H          -7.2350    0.3896    1.2841 H       1  UNL1        0.0000
     43 H          -6.3418   -1.6795   -0.0120 H       1  UNL1        0.0000
     44 H          -4.9172   -3.2591   -1.3171 H       1  UNL1        0.0000
     45 H          -2.8625   -4.1972   -2.4023 H       1  UNL1        0.0000
     46 H          -0.8099   -2.8794   -2.0657 H       1  UNL1        0.0000
@<TRIPOS>BOND
     1     1     2    1
     2     2     3    2
     3     3     4    1
     4     4     5    2
     5     5     6    1
     6     6     7   ar
     7     7     8   ar
     8     8     9   ar
     9     9    10   ar
    10    10    11   ar
    11    10    12   ar
    12    12    13   ar
    13    13    14   ar
    14    14    15   ar
    15    15    16   ar
    16    16    17   ar
    17    17    18   ar
    18    18    19    1
    19    19    20    1
    20    20    21    2
    21    21    22    1
    22    22    23   ar
    23    23    24   ar
    24    24    25   ar
    25    25    26   ar
    26    26    27   ar
    27    27    28   ar
    28     5     1    1
    29    11     6   ar
    30    16    12   ar
    31    28    17   ar
    32    28     9   ar
    33    22    18   ar
    34    27    23   ar
    35     1    29    1
    36     1    30    1
    37     2    31    1
    38     3    32    1
    39     4    33    1
    40     7    34    1
    41     8    35    1
    42    11    36    1
    43    13    37    1
    44    14    38    1
    45    15    39    1
    46    19    40    1
    47    19    41    1
    48    20    42    1
    49    21    43    1
    50    24    44    1
    51    25    45    1
    52    26    46    1
