@<TRIPOS>MOLECULE
*****
 49 56 0 0 0
SMALL
GASTEIGER

@<TRIPOS>ATOM
      1 SI          6.2750    1.3344    0.2100 Si      1  UNL1        0.0000
      2 C           7.6696    0.1794   -0.3074 C.2     1  UNL1        0.0000
      3 C           7.1914   -0.9255   -0.9080 C.2     1  UNL1        0.0000
      4 C           5.7426   -0.9906   -1.0262 C.2     1  UNL1        0.0000
      5 C           5.0746    0.0687   -0.5230 C.2     1  UNL1        0.0000
      6 C           3.6295    0.2555   -0.5004 C.ar    1  UNL1        0.0000
      7 C           3.0223    1.3066   -1.1834 C.ar    1  UNL1        0.0000
      8 C           1.6263    1.4758   -1.1566 C.ar    1  UNL1        0.0000
      9 C           0.7499    0.6235   -0.4436 C.ar    1  UNL1        0.0000
     10 C           1.4045   -0.4726    0.1881 C.ar    1  UNL1        0.0000
     11 C           2.8135   -0.6470    0.1765 C.ar    1  UNL1        0.0000
     12 C           0.4864   -1.3230    0.8339 C.ar    1  UNL1        0.0000
     13 C           0.8095   -2.3935    1.6365 C.ar    1  UNL1        0.0000
     14 N          -0.3629   -2.8764    2.1617 N.ar    1  UNL1        0.0000
     15 C          -1.4196   -2.1237    1.7058 C.ar    1  UNL1        0.0000
     16 C          -0.9393   -1.2095    0.7930 C.ar    1  UNL1        0.0000
     17 C          -1.6967   -0.2175    0.1088 C.ar    1  UNL1        0.0000
     18 C          -3.1990   -0.1410   -0.0462 C.ar    1  UNL1        0.0000
     19 C          -4.2057   -1.1667    0.0228 C.ar    1  UNL1        0.0000
     20 C          -3.9410   -2.5176   -0.0423 C.ar    1  UNL1        0.0000
     21 S          -5.3577   -3.4822    0.0733 S.2     1  UNL1        0.0000
     22 C          -6.3738   -2.1037    0.0455 C.ar    1  UNL1        0.0000
     23 C          -5.6380   -0.9463   -0.0408 C.ar    1  UNL1        0.0000
     24 C          -6.2647    0.2814   -0.2081 C.ar    1  UNL1        0.0000
     25 C          -5.3251    1.2996   -0.4159 C.ar    1  UNL1        0.0000
     26 C          -3.8863    1.0910   -0.3722 C.ar    1  UNL1        0.0000
     27 C          -2.9373    2.0898   -0.6581 C.ar    1  UNL1        0.0000
     28 C          -3.2178    3.3944   -0.9850 C.ar    1  UNL1        0.0000
     29 O          -2.0631    4.0907   -1.1519 O.2     1  UNL1        0.0000
     30 C          -1.0356    3.2218   -0.9383 C.ar    1  UNL1        0.0000
     31 C          -1.5073    1.9533   -0.6836 C.ar    1  UNL1        0.0000
     32 C          -0.7416    0.7913   -0.3666 C.ar    1  UNL1        0.0000
     33 H           6.1751    1.4495    1.6865 H       1  UNL1        0.0000
     34 H           6.2994    2.6091   -0.5517 H       1  UNL1        0.0000
     35 H           8.7033    0.4235   -0.1211 H       1  UNL1        0.0000
     36 H           7.8162   -1.7250   -1.2870 H       1  UNL1        0.0000
     37 H           5.2657   -1.8425   -1.4963 H       1  UNL1        0.0000
     38 H           3.6191    1.9997   -1.7733 H       1  UNL1        0.0000
     39 H           1.2344    2.2746   -1.7770 H       1  UNL1        0.0000
     40 H           3.2609   -1.4909    0.6943 H       1  UNL1        0.0000
     41 H           1.7549   -2.8311    1.9256 H       1  UNL1        0.0000
     42 H          -0.4340   -3.6315    2.8319 H       1  UNL1        0.0000
     43 H          -2.4078   -2.3085    2.1028 H       1  UNL1        0.0000
     44 H          -2.9932   -3.0216   -0.1587 H       1  UNL1        0.0000
     45 H          -7.4482   -2.2263    0.0502 H       1  UNL1        0.0000
     46 H          -7.3326    0.4455   -0.2579 H       1  UNL1        0.0000
     47 H          -5.7108    2.2945   -0.6346 H       1  UNL1        0.0000
     48 H          -4.1214    3.9729   -1.1126 H       1  UNL1        0.0000
     49 H          -0.0634    3.6879   -0.9767 H       1  UNL1        0.0000
@<TRIPOS>BOND
     1     1     2    1
     2     2     3    2
     3     3     4    1
     4     4     5    2
     5     5     6    1
     6     6     7   ar
     7     7     8   ar
     8     8     9   ar
     9     9    10   ar
    10    10    11   ar
    11    10    12   ar
    12    12    13   ar
    13    13    14   ar
    14    14    15   ar
    15    15    16   ar
    16    16    17   ar
    17    17    18   ar
    18    18    19   ar
    19    19    20   ar
    20    20    21   ar
    21    21    22   ar
    22    22    23   ar
    23    23    24   ar
    24    24    25   ar
    25    25    26   ar
    26    26    27   ar
    27    27    28   ar
    28    28    29   ar
    29    29    30   ar
    30    30    31   ar
    31    31    32   ar
    32     5     1    1
    33    11     6   ar
    34    16    12   ar
    35    32    17   ar
    36    32     9   ar
    37    26    18   ar
    38    31    27   ar
    39    23    19   ar
    40     1    33    1
    41     1    34    1
    42     2    35    1
    43     3    36    1
    44     4    37    1
    45     7    38    1
    46     8    39    1
    47    11    40    1
    48    13    41    1
    49    14    42    1
    50    15    43    1
    51    20    44    1
    52    22    45    1
    53    24    46    1
    54    25    47    1
    55    28    48    1
    56    30    49    1
