@<TRIPOS>MOLECULE
*****
 41 47 0 0 0
SMALL
GASTEIGER

@<TRIPOS>ATOM
      1 SI          5.9446   -0.5920   -0.6680 Si      1  UNL1        0.0000
      2 C           6.4666    0.0920    1.0850 C.2     1  UNL1        0.0000
      3 C           5.3955    0.4493    1.8291 C.2     1  UNL1        0.0000
      4 C           4.2042    0.2178    1.1070 C.ar    1  UNL1        0.0000
      5 N           2.9206    0.4509    1.5134 N.ar    1  UNL1        0.0000
      6 C           2.0437    0.0806    0.4909 C.ar    1  UNL1        0.0000
      7 C           2.8731   -0.3793   -0.5377 C.ar    1  UNL1        0.0000
      8 C           4.1875   -0.2991   -0.1691 C.ar    1  UNL1        0.0000
      9 C           2.2433   -0.8249   -1.7231 C.ar    1  UNL1        0.0000
     10 C           2.7502   -1.3193   -2.8822 C.ar    1  UNL1        0.0000
     11 O           1.6891   -1.5966   -3.7087 O.2     1  UNL1        0.0000
     12 C           0.5405   -1.2614   -3.0319 C.ar    1  UNL1        0.0000
     13 C           0.8428   -0.7739   -1.7803 C.ar    1  UNL1        0.0000
     14 C          -0.0582   -0.3265   -0.7873 C.ar    1  UNL1        0.0000
     15 C          -1.4699   -0.2869   -0.8711 C.ar    1  UNL1        0.0000
     16 C          -2.2403    0.1881    0.2035 C.ar    1  UNL1        0.0000
     17 C          -1.5675    0.6198    1.3619 C.ar    1  UNL1        0.0000
     18 C          -0.1691    0.5893    1.4632 C.ar    1  UNL1        0.0000
     19 C           0.6089    0.1164    0.3950 C.ar    1  UNL1        0.0000
     20 C          -3.7052    0.2092    0.1200 C.ar    1  UNL1        0.0000
     21 C          -4.4672   -0.9286   -0.2524 C.ar    1  UNL1        0.0000
     22 C          -5.8793   -0.9433   -0.3475 C.ar    1  UNL1        0.0000
     23 C          -6.6735    0.1816   -0.0813 C.ar    1  UNL1        0.0000
     24 C          -5.9828    1.3570    0.2954 C.ar    1  UNL1        0.0000
     25 N          -6.5585    2.5332    0.5887 N.ar    1  UNL1        0.0000
     26 S          -5.3256    3.5813    0.9521 S.2     1  UNL1        0.0000
     27 N          -4.0095    2.5919    0.7667 N.ar    1  UNL1        0.0000
     28 C          -4.4724    1.3818    0.4015 C.ar    1  UNL1        0.0000
     29 H           6.3377   -2.0182   -0.7937 H       1  UNL1        0.0000
     30 H           6.4582    0.3025   -1.7357 H       1  UNL1        0.0000
     31 H           7.5107    0.1449    1.3468 H       1  UNL1        0.0000
     32 H           5.4427    0.8542    2.8315 H       1  UNL1        0.0000
     33 H           2.6404    0.8311    2.4056 H       1  UNL1        0.0000
     34 H           3.7291   -1.5326   -3.2835 H       1  UNL1        0.0000
     35 H          -0.3746   -1.4318   -3.5805 H       1  UNL1        0.0000
     36 H          -1.9611   -0.6169   -1.7830 H       1  UNL1        0.0000
     37 H          -2.1377    0.9911    2.2128 H       1  UNL1        0.0000
     38 H           0.2881    0.9403    2.3832 H       1  UNL1        0.0000
     39 H          -3.9400   -1.8601   -0.4692 H       1  UNL1        0.0000
     40 H          -6.3713   -1.8720   -0.6388 H       1  UNL1        0.0000
     41 H          -7.7539    0.1591   -0.1576 H       1  UNL1        0.0000
@<TRIPOS>BOND
     1     1     2    1
     2     2     3    2
     3     3     4    1
     4     4     5   ar
     5     5     6   ar
     6     6     7   ar
     7     7     8   ar
     8     7     9   ar
     9     9    10   ar
    10    10    11   ar
    11    11    12   ar
    12    12    13   ar
    13    13    14   ar
    14    14    15   ar
    15    15    16   ar
    16    16    17   ar
    17    17    18   ar
    18    18    19   ar
    19    16    20    1
    20    20    21   ar
    21    21    22   ar
    22    22    23   ar
    23    23    24   ar
    24    24    25   ar
    25    25    26   ar
    26    26    27   ar
    27    27    28   ar
    28     8     1    1
    29    13     9   ar
    30    19    14   ar
    31    28    20   ar
    32     8     4   ar
    33    28    24   ar
    34    19     6   ar
    35     1    29    1
    36     1    30    1
    37     2    31    1
    38     3    32    1
    39     5    33    1
    40    10    34    1
    41    12    35    1
    42    15    36    1
    43    17    37    1
    44    18    38    1
    45    21    39    1
    46    22    40    1
    47    23    41    1
