@<TRIPOS>MOLECULE
*****
 39 45 0 0 0
SMALL
GASTEIGER

@<TRIPOS>ATOM
      1 SI         -5.3837    1.7647    0.4773 Si      1  UNL1        0.0000
      2 C          -6.1776    0.1222   -0.2687 C.2     1  UNL1        0.0000
      3 C          -5.2359   -0.7812   -0.6239 C.2     1  UNL1        0.0000
      4 C          -3.9488   -0.2714   -0.3508 C.ar    1  UNL1        0.0000
      5 N          -2.7403   -0.8706   -0.5641 N.ar    1  UNL1        0.0000
      6 C          -1.7198   -0.0135   -0.1503 C.ar    1  UNL1        0.0000
      7 C          -2.3792    1.1243    0.3172 C.ar    1  UNL1        0.0000
      8 C          -3.7363    0.9694    0.1971 C.ar    1  UNL1        0.0000
      9 C          -1.6351    2.2286    0.8241 C.ar    1  UNL1        0.0000
     10 N          -2.2161    3.3298    1.2779 N.ar    1  UNL1        0.0000
     11 S          -0.9033    4.2645    1.7319 S.2     1  UNL1        0.0000
     12 N           0.3583    3.2410    1.3347 N.ar    1  UNL1        0.0000
     13 C          -0.1867    2.1112    0.8276 C.ar    1  UNL1        0.0000
     14 C           0.5172    0.9561    0.3549 C.ar    1  UNL1        0.0000
     15 C           1.9635    0.9089    0.3875 C.ar    1  UNL1        0.0000
     16 C           2.7365   -0.1858   -0.0665 C.ar    1  UNL1        0.0000
     17 C           4.1827   -0.2033   -0.0503 C.ar    1  UNL1        0.0000
     18 C           5.1696   -0.7499   -0.8476 C.ar    1  UNL1        0.0000
     19 C           6.4120   -0.3786   -0.2769 C.ar    1  UNL1        0.0000
     20 C           6.1107    0.3791    0.8285 C.ar    1  UNL1        0.0000
     21 O           4.7664    0.4970    0.9703 O.2     1  UNL1        0.0000
     22 C           1.9214   -1.2261   -0.5346 C.ar    1  UNL1        0.0000
     23 C           2.3240   -2.4581   -0.9941 C.ar    1  UNL1        0.0000
     24 N           1.1952   -3.1646   -1.3329 N.ar    1  UNL1        0.0000
     25 C           0.0681   -2.4119   -1.0796 C.ar    1  UNL1        0.0000
     26 C           0.4767   -1.2003   -0.5714 C.ar    1  UNL1        0.0000
     27 C          -0.3141   -0.1203   -0.1419 C.ar    1  UNL1        0.0000
     28 H          -5.8147    1.8942    1.8928 H       1  UNL1        0.0000
     29 H          -5.7223    2.8994   -0.4192 H       1  UNL1        0.0000
     30 H          -7.2497    0.0463   -0.3444 H       1  UNL1        0.0000
     31 H          -5.4395   -1.7527   -1.0544 H       1  UNL1        0.0000
     32 H          -2.6082   -1.7868   -0.9614 H       1  UNL1        0.0000
     33 H           2.4953    1.7788    0.7799 H       1  UNL1        0.0000
     34 H           5.0145   -1.3320   -1.7442 H       1  UNL1        0.0000
     35 H           7.4025   -0.6246   -0.6319 H       1  UNL1        0.0000
     36 H           6.7044    0.8853    1.5767 H       1  UNL1        0.0000
     37 H           3.2971   -2.9154   -1.1034 H       1  UNL1        0.0000
     38 H           1.1920   -4.1084   -1.6983 H       1  UNL1        0.0000
     39 H          -0.8965   -2.8455   -1.2847 H       1  UNL1        0.0000
@<TRIPOS>BOND
     1     1     2    1
     2     2     3    2
     3     3     4    1
     4     4     5   ar
     5     5     6   ar
     6     6     7   ar
     7     7     8   ar
     8     7     9   ar
     9     9    10   ar
    10    10    11   ar
    11    11    12   ar
    12    12    13   ar
    13    13    14   ar
    14    14    15   ar
    15    15    16   ar
    16    16    17    1
    17    17    18   ar
    18    18    19   ar
    19    19    20   ar
    20    20    21   ar
    21    16    22   ar
    22    22    23   ar
    23    23    24   ar
    24    24    25   ar
    25    25    26   ar
    26    26    27   ar
    27     8     1    1
    28    13     9   ar
    29    27    14   ar
    30     8     4   ar
    31    21    17   ar
    32    26    22   ar
    33    27     6   ar
    34     1    28    1
    35     1    29    1
    36     2    30    1
    37     3    31    1
    38     5    32    1
    39    15    33    1
    40    18    34    1
    41    19    35    1
    42    20    36    1
    43    23    37    1
    44    24    38    1
    45    25    39    1
