@<TRIPOS>MOLECULE
*****
 35 40 0 0 0
SMALL
GASTEIGER

@<TRIPOS>ATOM
      1 SI          5.4701   -1.3012    1.0849 Si      1  UNL1        0.0000
      2 C           6.2872    0.2821    0.2658 C.2     1  UNL1        0.0000
      3 C           5.3633    1.1149   -0.2662 C.2     1  UNL1        0.0000
      4 C           4.0657    0.5913   -0.0718 C.ar    1  UNL1        0.0000
      5 N           2.8864    1.1368   -0.4642 N.ar    1  UNL1        0.0000
      6 C           1.8808    0.2701   -0.0568 C.ar    1  UNL1        0.0000
      7 C           2.4605   -0.8110    0.5873 C.ar    1  UNL1        0.0000
      8 S           1.2982   -1.9757    1.1465 S.2     1  UNL1        0.0000
      9 C          -0.0082   -1.0213    0.5179 C.ar    1  UNL1        0.0000
     10 C          -1.3993   -1.2997    0.5688 C.ar    1  UNL1        0.0000
     11 C          -2.3462   -0.4089    0.0161 C.ar    1  UNL1        0.0000
     12 C          -3.7726   -0.6690    0.0886 C.ar    1  UNL1        0.0000
     13 C          -4.5120   -1.7417   -0.3768 C.ar    1  UNL1        0.0000
     14 C          -5.8656   -1.5276   -0.0209 C.ar    1  UNL1        0.0000
     15 C          -5.9218   -0.3412    0.6729 C.ar    1  UNL1        0.0000
     16 N          -4.6502    0.1632    0.7483 N.ar    1  UNL1        0.0000
     17 C          -1.7926    0.7337   -0.5919 C.ar    1  UNL1        0.0000
     18 C          -2.5377    1.6969   -1.2422 C.ar    1  UNL1        0.0000
     19 S          -1.5633    2.9706   -1.8748 S.2     1  UNL1        0.0000
     20 C          -0.1092    2.2339   -1.3187 C.ar    1  UNL1        0.0000
     21 C          -0.4081    1.0673   -0.6769 C.ar    1  UNL1        0.0000
     22 C           0.4863    0.1221   -0.0778 C.ar    1  UNL1        0.0000
     23 C           3.8414   -0.5981    0.5729 C.ar    1  UNL1        0.0000
     24 H           5.9038   -2.5169    0.3513 H       1  UNL1        0.0000
     25 H           5.7397   -1.2968    2.5449 H       1  UNL1        0.0000
     26 H           7.3590    0.3928    0.2838 H       1  UNL1        0.0000
     27 H           5.5849    2.0474   -0.7686 H       1  UNL1        0.0000
     28 H           2.7364    2.0039   -0.9589 H       1  UNL1        0.0000
     29 H          -1.7412   -2.2113    1.0557 H       1  UNL1        0.0000
     30 H          -4.1164   -2.5871   -0.9257 H       1  UNL1        0.0000
     31 H          -6.7054   -2.1736   -0.2417 H       1  UNL1        0.0000
     32 H          -6.7528    0.1822    1.1262 H       1  UNL1        0.0000
     33 H          -4.3869    1.0178    1.2215 H       1  UNL1        0.0000
     34 H          -3.6067    1.7373   -1.4010 H       1  UNL1        0.0000
     35 H           0.8324    2.7168   -1.5186 H       1  UNL1        0.0000
@<TRIPOS>BOND
     1     1     2    1
     2     2     3    2
     3     3     4    1
     4     4     5   ar
     5     5     6   ar
     6     6     7   ar
     7     7     8   ar
     8     8     9   ar
     9     9    10   ar
    10    10    11   ar
    11    11    12    1
    12    12    13   ar
    13    13    14   ar
    14    14    15   ar
    15    15    16   ar
    16    11    17   ar
    17    17    18   ar
    18    18    19   ar
    19    19    20   ar
    20    20    21   ar
    21    21    22   ar
    22     7    23   ar
    23    23     1    1
    24    23     4   ar
    25    22     6   ar
    26    22     9   ar
    27    16    12   ar
    28    21    17   ar
    29     1    24    1
    30     1    25    1
    31     2    26    1
    32     3    27    1
    33     5    28    1
    34    10    29    1
    35    13    30    1
    36    14    31    1
    37    15    32    1
    38    16    33    1
    39    18    34    1
    40    20    35    1
