@<TRIPOS>MOLECULE
*****
 32 37 0 0 0
SMALL
GASTEIGER

@<TRIPOS>ATOM
      1 SI          5.7295   -0.4575   -0.3525 Si      1  UNL1        0.0000
      2 C           5.6368    0.9952    0.9618 C.2     1  UNL1        0.0000
      3 C           4.3631    1.3595    1.2359 C.2     1  UNL1        0.0000
      4 C           3.4558    0.5767    0.4852 C.ar    1  UNL1        0.0000
      5 N           2.0899    0.6589    0.4995 N.ar    1  UNL1        0.0000
      6 C           1.7076   -0.2966   -0.3846 C.ar    1  UNL1        0.0000
      7 C           0.4624   -0.6649   -0.7732 C.ar    1  UNL1        0.0000
      8 N          -0.7341   -0.1887   -0.3933 N.ar    1  UNL1        0.0000
      9 C          -1.6694   -0.9281   -1.1047 C.ar    1  UNL1        0.0000
     10 C          -1.0098   -1.8571   -1.9192 C.ar    1  UNL1        0.0000
     11 C           0.3763   -1.6671   -1.6864 C.ar    1  UNL1        0.0000
     12 S           2.0098   -2.1159   -2.0221 S.2     1  UNL1        0.0000
     13 C           2.7513   -0.9811   -0.9597 C.ar    1  UNL1        0.0000
     14 C           3.8869   -0.4098   -0.3910 C.ar    1  UNL1        0.0000
     15 C          -3.0760   -0.6927   -0.9517 C.ar    1  UNL1        0.0000
     16 S          -4.3226   -1.5612   -1.7937 S.2     1  UNL1        0.0000
     17 C          -5.6150   -0.6703   -1.0403 C.ar    1  UNL1        0.0000
     18 C          -5.0563    0.2268   -0.2018 C.ar    1  UNL1        0.0000
     19 C          -5.4237    1.2371    0.6999 C.ar    1  UNL1        0.0000
     20 C          -4.2126    1.7319    1.2011 C.ar    1  UNL1        0.0000
     21 O          -3.0878    1.1121    0.6864 O.2     1  UNL1        0.0000
     22 C          -3.6832    0.2146   -0.1540 C.ar    1  UNL1        0.0000
     23 H           6.4131    0.0309   -1.5767 H       1  UNL1        0.0000
     24 H           6.3304   -1.6573    0.2834 H       1  UNL1        0.0000
     25 H           6.5506    1.3973    1.3674 H       1  UNL1        0.0000
     26 H           4.0771    2.1385    1.9303 H       1  UNL1        0.0000
     27 H           1.4869    1.2729    1.0302 H       1  UNL1        0.0000
     28 H          -0.9166    0.5525    0.2715 H       1  UNL1        0.0000
     29 H          -1.4648   -2.5736   -2.5891 H       1  UNL1        0.0000
     30 H          -6.6504   -0.8757   -1.2710 H       1  UNL1        0.0000
     31 H          -6.4119    1.5809    0.9697 H       1  UNL1        0.0000
     32 H          -3.9935    2.5120    1.9188 H       1  UNL1        0.0000
@<TRIPOS>BOND
     1     1     2    1
     2     2     3    2
     3     3     4    1
     4     4     5   ar
     5     5     6   ar
     6     6     7   ar
     7     7     8   ar
     8     8     9   ar
     9     9    10   ar
    10    10    11   ar
    11    11    12   ar
    12    12    13   ar
    13    13    14   ar
    14     9    15    1
    15    15    16   ar
    16    16    17   ar
    17    17    18   ar
    18    18    19   ar
    19    19    20   ar
    20    20    21   ar
    21    21    22   ar
    22    14     1    1
    23    22    15   ar
    24    14     4   ar
    25    22    18   ar
    26    13     6   ar
    27    11     7   ar
    28     1    23    1
    29     1    24    1
    30     2    25    1
    31     3    26    1
    32     5    27    1
    33     8    28    1
    34    10    29    1
    35    17    30    1
    36    19    31    1
    37    20    32    1
