@<TRIPOS>MOLECULE
*****
 37 42 0 0 0
SMALL
GASTEIGER

@<TRIPOS>ATOM
      1 SI         -4.8943   -1.4810   -1.4723 Si      1  UNL1        0.0000
      2 C          -6.4423   -0.7616   -0.5961 C.2     1  UNL1        0.0000
      3 C          -6.0981    0.0872    0.3962 C.2     1  UNL1        0.0000
      4 C          -4.6698    0.2327    0.5407 C.2     1  UNL1        0.0000
      5 C          -3.8953   -0.4842   -0.3173 C.2     1  UNL1        0.0000
      6 C          -2.5339   -0.2561   -0.0761 C.ar    1  UNL1        0.0000
      7 N          -1.4280   -0.7517   -0.6873 N.ar    1  UNL1        0.0000
      8 C          -0.3036   -0.2094   -0.0705 C.ar    1  UNL1        0.0000
      9 C           1.0550   -0.4212   -0.3488 C.ar    1  UNL1        0.0000
     10 C           2.0235    0.2557    0.4168 C.ar    1  UNL1        0.0000
     11 C           1.5943    1.1202    1.4382 C.ar    1  UNL1        0.0000
     12 C           0.2348    1.3290    1.7160 C.ar    1  UNL1        0.0000
     13 C          -0.7309    0.6550    0.9529 C.ar    1  UNL1        0.0000
     14 C          -2.1199    0.5991    0.9203 C.ar    1  UNL1        0.0000
     15 SI         -3.6627    1.2829    1.7535 Si      1  UNL1        0.0000
     16 C           3.4570    0.0489    0.1734 C.ar    1  UNL1        0.0000
     17 C           4.3659   -0.2976    1.2070 C.ar    1  UNL1        0.0000
     18 C           5.7529   -0.5012    1.0120 C.ar    1  UNL1        0.0000
     19 C           6.3730   -0.3769   -0.2395 C.ar    1  UNL1        0.0000
     20 C           5.5297   -0.0320   -1.3215 C.ar    1  UNL1        0.0000
     21 N           5.9296    0.1347   -2.5916 N.ar    1  UNL1        0.0000
     22 S           4.5763    0.5408   -3.4598 S.2     1  UNL1        0.0000
     23 N           3.4220    0.5102   -2.2720 N.ar    1  UNL1        0.0000
     24 C           4.0439    0.1862   -1.1228 C.ar    1  UNL1        0.0000
     25 H          -4.7878   -2.9471   -1.2632 H       1  UNL1        0.0000
     26 H          -4.8190   -1.0373   -2.8871 H       1  UNL1        0.0000
     27 H          -7.4343   -1.0438   -0.9103 H       1  UNL1        0.0000
     28 H          -6.8104    0.6089    1.0226 H       1  UNL1        0.0000
     29 H          -1.3998   -1.3994   -1.4617 H       1  UNL1        0.0000
     30 H           1.3504   -1.0986   -1.1453 H       1  UNL1        0.0000
     31 H           2.3261    1.6628    2.0343 H       1  UNL1        0.0000
     32 H          -0.0593    2.0084    2.5099 H       1  UNL1        0.0000
     33 H          -3.8780    2.7378    1.5374 H       1  UNL1        0.0000
     34 H          -3.8442    0.8316    3.1584 H       1  UNL1        0.0000
     35 H           3.9764   -0.4295    2.2187 H       1  UNL1        0.0000
     36 H           6.3652   -0.7689    1.8736 H       1  UNL1        0.0000
     37 H           7.4358   -0.5347   -0.3777 H       1  UNL1        0.0000
@<TRIPOS>BOND
     1     1     2    1
     2     2     3    2
     3     3     4    1
     4     4     5    2
     5     5     6    1
     6     6     7   ar
     7     7     8   ar
     8     8     9   ar
     9     9    10   ar
    10    10    11   ar
    11    11    12   ar
    12    12    13   ar
    13    13    14   ar
    14    14    15    1
    15    10    16    1
    16    16    17   ar
    17    17    18   ar
    18    18    19   ar
    19    19    20   ar
    20    20    21   ar
    21    21    22   ar
    22    22    23   ar
    23    23    24   ar
    24     5     1    1
    25    14     6   ar
    26    24    16   ar
    27    15     4    1
    28    24    20   ar
    29    13     8   ar
    30     1    25    1
    31     1    26    1
    32     2    27    1
    33     3    28    1
    34     7    29    1
    35     9    30    1
    36    11    31    1
    37    12    32    1
    38    15    33    1
    39    15    34    1
    40    17    35    1
    41    18    36    1
    42    19    37    1
