@<TRIPOS>MOLECULE
*****
 41 47 0 0 0
SMALL
GASTEIGER

@<TRIPOS>ATOM
      1 SI         -4.0550    2.7804   -0.8331 Si      1  UNL1        0.0000
      2 C          -5.7118    1.8664   -0.8839 C.2     1  UNL1        0.0000
      3 C          -5.5926    0.5380   -0.6920 C.2     1  UNL1        0.0000
      4 C          -4.2054    0.1326   -0.4897 C.ar    1  UNL1        0.0000
      5 C          -3.2210    1.1513   -0.5249 C.ar    1  UNL1        0.0000
      6 C          -1.8476    0.8733   -0.3549 C.ar    1  UNL1        0.0000
      7 N          -0.7332    1.6902   -0.3982 N.ar    1  UNL1        0.0000
      8 C           0.4274    0.9752   -0.1621 C.ar    1  UNL1        0.0000
      9 C           1.7737    1.4246   -0.1367 C.ar    1  UNL1        0.0000
     10 C           2.8293    0.5384    0.1672 C.ar    1  UNL1        0.0000
     11 C           4.2315    0.9282    0.1850 C.ar    1  UNL1        0.0000
     12 C           5.2891    0.4018   -0.5333 C.ar    1  UNL1        0.0000
     13 C           6.5250    1.0501   -0.2447 C.ar    1  UNL1        0.0000
     14 C           6.3727    2.0541    0.6843 C.ar    1  UNL1        0.0000
     15 S           4.7498    2.2116    1.1991 S.2     1  UNL1        0.0000
     16 C           2.3848   -0.7551    0.4632 C.ar    1  UNL1        0.0000
     17 C           3.1658   -1.8095    0.8891 C.ar    1  UNL1        0.0000
     18 N           2.3338   -2.8799    1.1464 N.ar    1  UNL1        0.0000
     19 C           1.0199   -2.5301    0.9077 C.ar    1  UNL1        0.0000
     20 C           1.0571   -1.2457    0.4540 C.ar    1  UNL1        0.0000
     21 C           0.0193   -0.3365    0.0751 C.ar    1  UNL1        0.0000
     22 C          -1.3529   -0.4155   -0.1084 C.ar    1  UNL1        0.0000
     23 C          -2.3196   -1.4796   -0.1244 C.ar    1  UNL1        0.0000
     24 C          -2.2197   -2.8348   -0.0721 C.ar    1  UNL1        0.0000
     25 O          -3.4839   -3.3664   -0.1543 O.2     1  UNL1        0.0000
     26 C          -4.3616   -2.3232   -0.2927 C.ar    1  UNL1        0.0000
     27 C          -3.6782   -1.1322   -0.3048 C.ar    1  UNL1        0.0000
     28 H          -3.6955    3.3754   -2.1443 H       1  UNL1        0.0000
     29 H          -3.9580    3.7111    0.3187 H       1  UNL1        0.0000
     30 H          -6.6289    2.4090   -1.0547 H       1  UNL1        0.0000
     31 H          -6.4148   -0.1631   -0.6856 H       1  UNL1        0.0000
     32 H          -0.7532    2.6824   -0.5814 H       1  UNL1        0.0000
     33 H           1.9958    2.4660   -0.3595 H       1  UNL1        0.0000
     34 H           5.1770   -0.4133   -1.2385 H       1  UNL1        0.0000
     35 H           7.4749    0.7933   -0.6966 H       1  UNL1        0.0000
     36 H           7.1353    2.7063    1.0870 H       1  UNL1        0.0000
     37 H           4.2291   -1.8986    1.0666 H       1  UNL1        0.0000
     38 H           2.6384   -3.7759    1.5045 H       1  UNL1        0.0000
     39 H           0.2351   -3.2290    1.1369 H       1  UNL1        0.0000
     40 H          -1.4319   -3.5655   -0.0192 H       1  UNL1        0.0000
     41 H          -5.4001   -2.6059   -0.3880 H       1  UNL1        0.0000
@<TRIPOS>BOND
     1     1     2    1
     2     2     3    2
     3     3     4    1
     4     4     5   ar
     5     5     6   ar
     6     6     7   ar
     7     7     8   ar
     8     8     9   ar
     9     9    10   ar
    10    10    11    1
    11    11    12   ar
    12    12    13   ar
    13    13    14   ar
    14    14    15   ar
    15    10    16   ar
    16    16    17   ar
    17    17    18   ar
    18    18    19   ar
    19    19    20   ar
    20    20    21   ar
    21    21    22   ar
    22    22    23   ar
    23    23    24   ar
    24    24    25   ar
    25    25    26   ar
    26    26    27   ar
    27     5     1    1
    28    22     6   ar
    29    27    23   ar
    30    27     4   ar
    31    21     8   ar
    32    15    11   ar
    33    20    16   ar
    34     1    28    1
    35     1    29    1
    36     2    30    1
    37     3    31    1
    38     7    32    1
    39     9    33    1
    40    12    34    1
    41    13    35    1
    42    14    36    1
    43    17    37    1
    44    18    38    1
    45    19    39    1
    46    24    40    1
    47    26    41    1
