@<TRIPOS>MOLECULE
*****
 40 46 0 0 0
SMALL
GASTEIGER

@<TRIPOS>ATOM
      1 SI         -4.5683   -2.0887    1.7900 Si      1  UNL1        0.0000
      2 C          -6.0215   -1.3025    0.8792 C.2     1  UNL1        0.0000
      3 C          -5.6489   -0.3704   -0.0179 C.2     1  UNL1        0.0000
      4 C          -4.2017   -0.1899   -0.0716 C.ar    1  UNL1        0.0000
      5 C          -3.3946   -0.9930    0.7996 C.ar    1  UNL1        0.0000
      6 C          -1.9769   -0.8945    0.8251 C.ar    1  UNL1        0.0000
      7 SI         -0.6803   -1.8787    1.9196 Si      1  UNL1        0.0000
      8 C           0.7163   -0.9286    1.0940 C.ar    1  UNL1        0.0000
      9 C           2.1031   -0.8284    1.1151 C.ar    1  UNL1        0.0000
     10 C           2.4312    0.1444    0.1736 C.ar    1  UNL1        0.0000
     11 N           1.2469    0.6055   -0.3896 N.ar    1  UNL1        0.0000
     12 C           0.1950   -0.0489    0.1712 C.ar    1  UNL1        0.0000
     13 C          -1.2324    0.0155   -0.0175 C.ar    1  UNL1        0.0000
     14 C          -2.0340    0.7861   -0.8559 C.ar    1  UNL1        0.0000
     15 C          -1.6711    1.7384   -1.7740 C.ar    1  UNL1        0.0000
     16 N          -2.8355    2.2126   -2.3484 N.ar    1  UNL1        0.0000
     17 C          -3.9362    1.5773   -1.8108 C.ar    1  UNL1        0.0000
     18 C          -3.4698    0.6846   -0.8799 C.ar    1  UNL1        0.0000
     19 C           3.7169    0.6505   -0.2189 C.ar    1  UNL1        0.0000
     20 S           3.8990    1.8916   -1.4419 S.2     1  UNL1        0.0000
     21 C           5.6250    1.9259   -1.3249 C.ar    1  UNL1        0.0000
     22 C           5.9851    1.0254   -0.3943 C.ar    1  UNL1        0.0000
     23 O           7.2573    0.7443   -0.0022 O.2     1  UNL1        0.0000
     24 C           6.9971   -0.2275    0.9452 C.ar    1  UNL1        0.0000
     25 C           5.6366   -0.5149    1.1128 C.ar    1  UNL1        0.0000
     26 C           4.9632    0.3314    0.2089 C.ar    1  UNL1        0.0000
     27 H          -4.5647   -1.7624    3.2376 H       1  UNL1        0.0000
     28 H          -4.4102   -3.5284    1.4667 H       1  UNL1        0.0000
     29 H          -7.0329   -1.6094    1.0970 H       1  UNL1        0.0000
     30 H          -6.3258    0.1956   -0.6414 H       1  UNL1        0.0000
     31 H          -0.8763   -1.5647    3.3587 H       1  UNL1        0.0000
     32 H          -0.7222   -3.3273    1.5913 H       1  UNL1        0.0000
     33 H           2.7971   -1.3842    1.7298 H       1  UNL1        0.0000
     34 H           1.1921    1.3169   -1.1039 H       1  UNL1        0.0000
     35 H          -0.7166    2.1345   -2.0857 H       1  UNL1        0.0000
     36 H          -2.8760    2.9266   -3.0639 H       1  UNL1        0.0000
     37 H          -4.9332    1.8265   -2.1463 H       1  UNL1        0.0000
     38 H           6.2569    2.5727   -1.9152 H       1  UNL1        0.0000
     39 H           7.8847   -0.6250    1.4199 H       1  UNL1        0.0000
     40 H           5.2254   -1.2391    1.7998 H       1  UNL1        0.0000
@<TRIPOS>BOND
     1     1     2    1
     2     2     3    2
     3     3     4    1
     4     4     5   ar
     5     5     6   ar
     6     6     7    1
     7     7     8    1
     8     8     9   ar
     9     9    10   ar
    10    10    11   ar
    11    11    12   ar
    12    12    13    1
    13    13    14   ar
    14    14    15   ar
    15    15    16   ar
    16    16    17   ar
    17    17    18   ar
    18    10    19    1
    19    19    20   ar
    20    20    21   ar
    21    21    22   ar
    22    22    23   ar
    23    23    24   ar
    24    24    25   ar
    25    25    26   ar
    26     5     1    1
    27    13     6   ar
    28    18    14   ar
    29    26    19   ar
    30    18     4   ar
    31    26    22   ar
    32    12     8   ar
    33     1    27    1
    34     1    28    1
    35     2    29    1
    36     3    30    1
    37     7    31    1
    38     7    32    1
    39     9    33    1
    40    11    34    1
    41    15    35    1
    42    16    36    1
    43    17    37    1
    44    21    38    1
    45    24    39    1
    46    25    40    1
