@<TRIPOS>MOLECULE
*****
 46 52 0 0 0
SMALL
GASTEIGER

@<TRIPOS>ATOM
      1 SI         -4.3832   -1.8526   -0.1304 Si      1  UNL1        0.0000
      2 C          -5.8014   -0.7114    0.2638 C.2     1  UNL1        0.0000
      3 C          -5.4001    0.5491    0.4863 C.2     1  UNL1        0.0000
      4 C          -3.9550    0.7109    0.3641 C.ar    1  UNL1        0.0000
      5 C          -3.1068   -0.4191    0.0341 C.ar    1  UNL1        0.0000
      6 C          -1.6228   -0.4065   -0.1234 C.ar    1  UNL1        0.0000
      7 C          -0.9776    0.8672    0.0747 C.ar    1  UNL1        0.0000
      8 C           0.4089    1.0547   -0.0361 C.ar    1  UNL1        0.0000
      9 C           1.2589   -0.0027   -0.3471 C.ar    1  UNL1        0.0000
     10 C           2.6898    0.2933   -0.4386 C.ar    1  UNL1        0.0000
     11 C           3.3302    0.7321   -1.6272 C.ar    1  UNL1        0.0000
     12 C           4.7276    1.0329   -1.7248 C.ar    1  UNL1        0.0000
     13 C           5.6324    0.9314   -0.6466 C.ar    1  UNL1        0.0000
     14 C           5.0019    0.5049    0.5222 C.ar    1  UNL1        0.0000
     15 C           5.6788    0.3333    1.7041 C.ar    1  UNL1        0.0000
     16 S           4.6249   -0.1984    2.9539 S.2     1  UNL1        0.0000
     17 C           3.2598   -0.1979    1.9075 C.ar    1  UNL1        0.0000
     18 C           3.5962    0.1984    0.6334 C.ar    1  UNL1        0.0000
     19 C           0.7132   -1.2896   -0.5605 C.ar    1  UNL1        0.0000
     20 C           1.5758   -2.3698   -0.8805 C.ar    1  UNL1        0.0000
     21 C           1.1115   -3.6591   -1.1007 C.ar    1  UNL1        0.0000
     22 C          -0.2394   -3.9002   -1.0060 C.ar    1  UNL1        0.0000
     23 C          -1.1118   -2.8511   -0.6922 C.ar    1  UNL1        0.0000
     24 C          -0.7042   -1.5112   -0.4547 C.ar    1  UNL1        0.0000
     25 C          -1.8277    1.9627    0.3985 C.ar    1  UNL1        0.0000
     26 C          -1.4803    3.2738    0.6394 C.ar    1  UNL1        0.0000
     27 N          -2.6388    3.9696    0.9128 N.ar    1  UNL1        0.0000
     28 C          -3.7227    3.1245    0.8502 C.ar    1  UNL1        0.0000
     29 C          -3.2394    1.8795    0.5338 C.ar    1  UNL1        0.0000
     30 H          -4.1933   -2.8925    0.9119 H       1  UNL1        0.0000
     31 H          -4.4557   -2.3800   -1.5163 H       1  UNL1        0.0000
     32 H          -6.8182   -1.0707    0.2981 H       1  UNL1        0.0000
     33 H          -6.0582    1.3705    0.7310 H       1  UNL1        0.0000
     34 H           0.8434    2.0387    0.1251 H       1  UNL1        0.0000
     35 H           2.7243    0.8469   -2.5279 H       1  UNL1        0.0000
     36 H           5.1111    1.3602   -2.6919 H       1  UNL1        0.0000
     37 H           6.6848    1.1637   -0.7410 H       1  UNL1        0.0000
     38 H           6.7283    0.4863    1.9144 H       1  UNL1        0.0000
     39 H           2.2930   -0.4915    2.2942 H       1  UNL1        0.0000
     40 H           2.6511   -2.2181   -0.9632 H       1  UNL1        0.0000
     41 H           1.8040   -4.4598   -1.3420 H       1  UNL1        0.0000
     42 H          -0.6305   -4.9004   -1.1732 H       1  UNL1        0.0000
     43 H          -2.1469   -3.1446   -0.6423 H       1  UNL1        0.0000
     44 H          -0.5309    3.7904    0.6473 H       1  UNL1        0.0000
     45 H          -2.6842    4.9571    1.1286 H       1  UNL1        0.0000
     46 H          -4.7210    3.4950    1.0372 H       1  UNL1        0.0000
@<TRIPOS>BOND
     1     1     2    1
     2     2     3    2
     3     3     4    1
     4     4     5   ar
     5     5     6   ar
     6     6     7   ar
     7     7     8   ar
     8     8     9   ar
     9     9    10    1
    10    10    11   ar
    11    11    12   ar
    12    12    13   ar
    13    13    14   ar
    14    14    15   ar
    15    15    16   ar
    16    16    17   ar
    17    17    18   ar
    18     9    19   ar
    19    19    20   ar
    20    20    21   ar
    21    21    22   ar
    22    22    23   ar
    23    23    24   ar
    24     7    25   ar
    25    25    26   ar
    26    26    27   ar
    27    27    28   ar
    28    28    29   ar
    29     5     1    1
    30    24     6   ar
    31    29    25   ar
    32    29     4   ar
    33    18    10   ar
    34    24    19   ar
    35    18    14   ar
    36     1    30    1
    37     1    31    1
    38     2    32    1
    39     3    33    1
    40     8    34    1
    41    11    35    1
    42    12    36    1
    43    13    37    1
    44    15    38    1
    45    17    39    1
    46    20    40    1
    47    21    41    1
    48    22    42    1
    49    23    43    1
    50    26    44    1
    51    27    45    1
    52    28    46    1
