@<TRIPOS>MOLECULE
*****
 35 40 0 0 0
SMALL
GASTEIGER

@<TRIPOS>ATOM
      1 SI          2.1013    1.5652   -0.6495 Si      1  UNL1        0.0000
      2 C           3.4605    0.2839   -0.2225 C.2     1  UNL1        0.0000
      3 C           2.9204   -0.8976    0.1585 C.2     1  UNL1        0.0000
      4 C           1.4462   -0.9248    0.1570 C.ar    1  UNL1        0.0000
      5 C           0.6597   -2.0164    0.5070 C.ar    1  UNL1        0.0000
      6 C          -0.7426   -1.9154    0.4641 C.ar    1  UNL1        0.0000
      7 C          -1.3431   -0.7011    0.0642 C.ar    1  UNL1        0.0000
      8 C          -0.5204    0.3814   -0.2825 C.ar    1  UNL1        0.0000
      9 O          -1.2587    1.4783   -0.6451 O.2     1  UNL1        0.0000
     10 C          -2.5768    1.1260   -0.5398 C.ar    1  UNL1        0.0000
     11 C          -3.6942    1.9484   -0.8157 C.ar    1  UNL1        0.0000
     12 C          -5.0040    1.4360   -0.6581 C.ar    1  UNL1        0.0000
     13 C          -5.0107    0.1121   -0.2269 C.ar    1  UNL1        0.0000
     14 C          -6.1191   -0.6621    0.0173 C.ar    1  UNL1        0.0000
     15 O          -5.7371   -1.9183    0.4293 O.2     1  UNL1        0.0000
     16 C          -4.3623   -1.9515    0.4499 C.ar    1  UNL1        0.0000
     17 C          -3.9225   -0.7293    0.0550 C.ar    1  UNL1        0.0000
     18 C          -2.6265   -0.1864   -0.1126 C.ar    1  UNL1        0.0000
     19 C           0.8586    0.2903   -0.2430 C.ar    1  UNL1        0.0000
     20 C           4.8636    0.5278   -0.2920 C.ar    1  UNL1        0.0000
     21 C           5.9290   -0.3232   -0.0069 C.ar    1  UNL1        0.0000
     22 N           7.2062    0.1812   -0.1623 N.ar    1  UNL1        0.0000
     23 C           7.1244    1.4247   -0.5685 C.ar    1  UNL1        0.0000
     24 S           5.5480    2.0454   -0.7821 S.2     1  UNL1        0.0000
     25 H           2.1237    2.7102    0.2985 H       1  UNL1        0.0000
     26 H           2.1406    1.9323   -2.0896 H       1  UNL1        0.0000
     27 H           3.4726   -1.7810    0.4502 H       1  UNL1        0.0000
     28 H           1.1184   -2.9526    0.8152 H       1  UNL1        0.0000
     29 H          -1.3519   -2.7713    0.7385 H       1  UNL1        0.0000
     30 H          -3.5402    2.9710   -1.1477 H       1  UNL1        0.0000
     31 H          -5.8882    2.0276   -0.8572 H       1  UNL1        0.0000
     32 H          -7.1868   -0.5039   -0.0419 H       1  UNL1        0.0000
     33 H          -3.9176   -2.8859    0.7575 H       1  UNL1        0.0000
     34 H           5.8274   -1.3488    0.3268 H       1  UNL1        0.0000
     35 H           8.0023    2.0280   -0.7590 H       1  UNL1        0.0000
@<TRIPOS>BOND
     1     1     2    1
     2     2     3    2
     3     3     4    1
     4     4     5   ar
     5     5     6   ar
     6     6     7   ar
     7     7     8   ar
     8     8     9   ar
     9     9    10   ar
    10    10    11   ar
    11    11    12   ar
    12    12    13   ar
    13    13    14   ar
    14    14    15   ar
    15    15    16   ar
    16    16    17   ar
    17    17    18   ar
    18     8    19   ar
    19     2    20    1
    20    20    21   ar
    21    21    22   ar
    22    22    23   ar
    23    23    24   ar
    24    19     1    1
    25    24    20   ar
    26    19     4   ar
    27    18     7   ar
    28    18    10   ar
    29    17    13   ar
    30     1    25    1
    31     1    26    1
    32     3    27    1
    33     5    28    1
    34     6    29    1
    35    11    30    1
    36    12    31    1
    37    14    32    1
    38    16    33    1
    39    21    34    1
    40    23    35    1
