@<TRIPOS>MOLECULE
*****
 43 49 0 0 0
SMALL
GASTEIGER

@<TRIPOS>ATOM
      1 SI         -5.0335   -1.0489   -0.1463 Si      1  UNL1        0.0000
      2 C          -6.0457    0.5086   -0.3887 C.2     1  UNL1        0.0000
      3 C          -5.2834    1.6117   -0.4713 C.2     1  UNL1        0.0000
      4 C          -3.8577    1.3185   -0.3514 C.ar    1  UNL1        0.0000
      5 C          -3.4307   -0.0339   -0.1681 C.ar    1  UNL1        0.0000
      6 C          -2.0304   -0.4385   -0.0367 C.ar    1  UNL1        0.0000
      7 C          -1.4881   -1.7457    0.1483 C.ar    1  UNL1        0.0000
      8 C          -2.1677   -2.9448    0.2473 C.ar    1  UNL1        0.0000
      9 N          -1.2531   -3.9719    0.4220 N.ar    1  UNL1        0.0000
     10 C           0.0229   -3.4662    0.4396 C.ar    1  UNL1        0.0000
     11 C          -0.1386   -2.1221    0.2732 C.ar    1  UNL1        0.0000
     12 C           0.8752   -1.1279    0.2182 C.ar    1  UNL1        0.0000
     13 C           2.2546   -1.3818    0.3305 C.ar    1  UNL1        0.0000
     14 C           2.9789   -0.2067    0.2370 C.ar    1  UNL1        0.0000
     15 S           1.9157    1.1312    0.0173 S.2     1  UNL1        0.0000
     16 C           0.4634    0.1831    0.0406 C.ar    1  UNL1        0.0000
     17 C          -0.9269    0.5399   -0.0845 C.ar    1  UNL1        0.0000
     18 C          -1.4161    1.8622   -0.2679 C.ar    1  UNL1        0.0000
     19 C          -0.7215    3.0481   -0.3643 C.ar    1  UNL1        0.0000
     20 N          -1.6261    4.0742   -0.5382 N.ar    1  UNL1        0.0000
     21 C          -2.9045    3.5773   -0.5572 C.ar    1  UNL1        0.0000
     22 C          -2.8050    2.2179   -0.3929 C.ar    1  UNL1        0.0000
     23 C           4.4405   -0.0004    0.3005 C.ar    1  UNL1        0.0000
     24 C           5.3292   -1.0599    0.4776 C.ar    1  UNL1        0.0000
     25 C           6.6981   -0.7987    0.5291 C.ar    1  UNL1        0.0000
     26 C           7.1474    0.5084    0.4034 C.ar    1  UNL1        0.0000
     27 C           6.2042    1.5045    0.2306 C.ar    1  UNL1        0.0000
     28 N           4.8738    1.2787    0.1772 N.ar    1  UNL1        0.0000
     29 H          -5.3031   -1.6833    1.1694 H       1  UNL1        0.0000
     30 H          -5.1543   -1.9714   -1.3042 H       1  UNL1        0.0000
     31 H          -7.1221    0.4699   -0.4489 H       1  UNL1        0.0000
     32 H          -5.6615    2.6141   -0.6108 H       1  UNL1        0.0000
     33 H          -3.2102   -3.2131    0.2161 H       1  UNL1        0.0000
     34 H          -1.4954   -4.9494    0.5215 H       1  UNL1        0.0000
     35 H           0.8834   -4.1075    0.5661 H       1  UNL1        0.0000
     36 H           2.6977   -2.3577    0.4709 H       1  UNL1        0.0000
     37 H           0.3274    3.2968   -0.3302 H       1  UNL1        0.0000
     38 H          -1.3777    5.0499   -0.6369 H       1  UNL1        0.0000
     39 H          -3.7508    4.2375   -0.6850 H       1  UNL1        0.0000
     40 H           4.9821   -2.0816    0.5760 H       1  UNL1        0.0000
     41 H           7.4056   -1.6115    0.6665 H       1  UNL1        0.0000
     42 H           8.2045    0.7458    0.4391 H       1  UNL1        0.0000
     43 H           6.4994    2.5447    0.1268 H       1  UNL1        0.0000
@<TRIPOS>BOND
     1     1     2    1
     2     2     3    2
     3     3     4    1
     4     4     5   ar
     5     5     6   ar
     6     6     7   ar
     7     7     8   ar
     8     8     9   ar
     9     9    10   ar
    10    10    11   ar
    11    11    12   ar
    12    12    13   ar
    13    13    14   ar
    14    14    15   ar
    15    15    16   ar
    16    16    17   ar
    17    17    18   ar
    18    18    19   ar
    19    19    20   ar
    20    20    21   ar
    21    21    22   ar
    22    14    23    1
    23    23    24   ar
    24    24    25   ar
    25    25    26   ar
    26    26    27   ar
    27    27    28   ar
    28     5     1    1
    29    17     6   ar
    30    22    18   ar
    31    28    23   ar
    32    22     4   ar
    33    11     7   ar
    34    16    12   ar
    35     1    29    1
    36     1    30    1
    37     2    31    1
    38     3    32    1
    39     8    33    1
    40     9    34    1
    41    10    35    1
    42    13    36    1
    43    19    37    1
    44    20    38    1
    45    21    39    1
    46    24    40    1
    47    25    41    1
    48    26    42    1
    49    27    43    1
