@<TRIPOS>MOLECULE
*****
 43 49 0 0 0
SMALL
GASTEIGER

@<TRIPOS>ATOM
      1 SI         -4.2796    0.8986   -1.3248 Si      1  UNL1        0.0000
      2 C          -5.5376    1.1725    0.0301 C.2     1  UNL1        0.0000
      3 C          -5.0557    0.9134    1.2555 C.2     1  UNL1        0.0000
      4 C          -3.6538    0.5022    1.2442 C.ar    1  UNL1        0.0000
      5 C          -2.9689    0.3218   -0.0044 C.ar    1  UNL1        0.0000
      6 C          -1.5520   -0.0463   -0.1867 C.ar    1  UNL1        0.0000
      7 C          -0.9291   -0.4515   -1.4286 C.ar    1  UNL1        0.0000
      8 C          -1.6815   -0.9214   -2.5363 C.ar    1  UNL1        0.0000
      9 C          -1.1266   -1.2716   -3.7673 C.ar    1  UNL1        0.0000
     10 C           0.2356   -1.1983   -3.9327 C.ar    1  UNL1        0.0000
     11 C           1.0256   -0.8268   -2.8484 C.ar    1  UNL1        0.0000
     12 C           0.4904   -0.4822   -1.5737 C.ar    1  UNL1        0.0000
     13 C           1.3333   -0.1757   -0.4593 C.ar    1  UNL1        0.0000
     14 C           2.7533   -0.1120   -0.5466 C.ar    1  UNL1        0.0000
     15 C           3.5406    0.2137    0.5516 C.ar    1  UNL1        0.0000
     16 N           2.9934    0.5091    1.7364 N.ar    1  UNL1        0.0000
     17 C           1.6443    0.4454    1.8183 C.ar    1  UNL1        0.0000
     18 C           0.7489    0.0630    0.7995 C.ar    1  UNL1        0.0000
     19 C          -0.6864    0.0033    0.9610 C.ar    1  UNL1        0.0000
     20 C          -1.4160    0.0221    2.2141 C.ar    1  UNL1        0.0000
     21 C          -0.8919   -0.3117    3.4461 C.ar    1  UNL1        0.0000
     22 S          -2.0255   -0.1448    4.7249 S.2     1  UNL1        0.0000
     23 C          -3.2792    0.2686    3.6369 C.ar    1  UNL1        0.0000
     24 C          -2.8364    0.2632    2.3351 C.ar    1  UNL1        0.0000
     25 C           5.0022    0.2905    0.4756 C.ar    1  UNL1        0.0000
     26 C           5.8333    0.4704   -0.6190 C.ar    1  UNL1        0.0000
     27 N           7.1931    0.4810   -0.3691 N.ar    1  UNL1        0.0000
     28 C           7.3894    0.3205    0.9197 C.ar    1  UNL1        0.0000
     29 S           5.9876    0.1399    1.8840 S.2     1  UNL1        0.0000
     30 H          -4.7289   -0.1923   -2.2261 H       1  UNL1        0.0000
     31 H          -3.8820    2.1658   -1.9855 H       1  UNL1        0.0000
     32 H          -6.5396    1.4996   -0.2027 H       1  UNL1        0.0000
     33 H          -5.6320    1.0150    2.1642 H       1  UNL1        0.0000
     34 H          -2.7442   -1.1095   -2.4421 H       1  UNL1        0.0000
     35 H          -1.7636   -1.6190   -4.5763 H       1  UNL1        0.0000
     36 H           0.6931   -1.4655   -4.8812 H       1  UNL1        0.0000
     37 H           2.0959   -0.8376   -3.0307 H       1  UNL1        0.0000
     38 H           3.2606   -0.3190   -1.4803 H       1  UNL1        0.0000
     39 H           1.2907    0.7968    2.7823 H       1  UNL1        0.0000
     40 H           0.0906   -0.6756    3.7067 H       1  UNL1        0.0000
     41 H          -4.2718    0.4547    4.0216 H       1  UNL1        0.0000
     42 H           5.5007    0.6066   -1.6408 H       1  UNL1        0.0000
     43 H           8.3799    0.3011    1.3549 H       1  UNL1        0.0000
@<TRIPOS>BOND
     1     1     2    1
     2     2     3    2
     3     3     4    1
     4     4     5   ar
     5     5     6   ar
     6     6     7   ar
     7     7     8   ar
     8     8     9   ar
     9     9    10   ar
    10    10    11   ar
    11    11    12   ar
    12    12    13   ar
    13    13    14   ar
    14    14    15   ar
    15    15    16   ar
    16    16    17   ar
    17    17    18   ar
    18    18    19   ar
    19    19    20   ar
    20    20    21   ar
    21    21    22   ar
    22    22    23   ar
    23    23    24   ar
    24    15    25    1
    25    25    26   ar
    26    26    27   ar
    27    27    28   ar
    28    28    29   ar
    29     5     1    1
    30    19     6   ar
    31    24    20   ar
    32    29    25   ar
    33    24     4   ar
    34    12     7   ar
    35    18    13   ar
    36     1    30    1
    37     1    31    1
    38     2    32    1
    39     3    33    1
    40     8    34    1
    41     9    35    1
    42    10    36    1
    43    11    37    1
    44    14    38    1
    45    17    39    1
    46    21    40    1
    47    23    41    1
    48    26    42    1
    49    28    43    1
