@<TRIPOS>MOLECULE
*****
 50 57 0 0 0
SMALL
GASTEIGER

@<TRIPOS>ATOM
      1 SI         -5.3753   -1.7957    0.7313 Si      1  UNL1        0.0000
      2 C          -6.5296   -0.6311   -0.1098 C.2     1  UNL1        0.0000
      3 C          -5.8981    0.4482   -0.5952 C.2     1  UNL1        0.0000
      4 C          -4.4271    0.4839   -0.3636 C.ar    1  UNL1        0.0000
      5 C          -3.9225   -0.6401    0.3428 C.ar    1  UNL1        0.0000
      6 C          -2.5323   -0.7896    0.5940 C.ar    1  UNL1        0.0000
      7 C          -1.8896   -1.8717    1.2966 C.ar    1  UNL1        0.0000
      8 C          -2.4313   -2.9196    2.0057 C.ar    1  UNL1        0.0000
      9 O          -1.4512   -3.7340    2.5004 O.2     1  UNL1        0.0000
     10 C          -0.2573   -3.2067    2.1168 C.ar    1  UNL1        0.0000
     11 C          -0.4791   -2.0626    1.3989 C.ar    1  UNL1        0.0000
     12 C           0.4642   -1.2471    0.8199 C.ar    1  UNL1        0.0000
     13 C           1.9040   -1.4685    0.7675 C.2     1  UNL1        0.0000
     14 C           2.5415   -0.5635    0.0048 C.2     1  UNL1        0.0000
     15 SI          1.3748    0.6972   -0.7559 Si      1  UNL1        0.0000
     16 C          -0.1430   -0.1220    0.1595 C.ar    1  UNL1        0.0000
     17 C          -1.5925    0.1992    0.0880 C.ar    1  UNL1        0.0000
     18 C          -2.1754    1.4238   -0.4711 C.ar    1  UNL1        0.0000
     19 C          -1.4297    2.6062   -0.7180 C.ar    1  UNL1        0.0000
     20 C          -1.9478    3.7550   -1.3239 C.ar    1  UNL1        0.0000
     21 C          -3.2741    3.7884   -1.6878 C.ar    1  UNL1        0.0000
     22 C          -4.0769    2.6952   -1.3868 C.ar    1  UNL1        0.0000
     23 C          -3.5721    1.5297   -0.7515 C.ar    1  UNL1        0.0000
     24 C           3.9591   -0.5638   -0.2785 C.ar    1  UNL1        0.0000
     25 C           4.6213   -1.5105   -1.0999 C.ar    1  UNL1        0.0000
     26 C           6.0378   -1.4977   -1.3686 C.ar    1  UNL1        0.0000
     27 C           6.9424   -0.5469   -0.8399 C.ar    1  UNL1        0.0000
     28 C           6.2706    0.3566   -0.0278 C.ar    1  UNL1        0.0000
     29 C           6.8157    1.4017    0.6676 C.ar    1  UNL1        0.0000
     30 O           5.8308    2.0458    1.3663 O.2     1  UNL1        0.0000
     31 C           4.6509    1.3995    1.1102 C.ar    1  UNL1        0.0000
     32 C           4.8696    0.3581    0.2445 C.ar    1  UNL1        0.0000
     33 H          -5.6339   -1.9046    2.1888 H       1  UNL1        0.0000
     34 H          -5.2646   -3.0987    0.0301 H       1  UNL1        0.0000
     35 H          -7.5876   -0.8309   -0.1831 H       1  UNL1        0.0000
     36 H          -6.4253    1.2311   -1.1207 H       1  UNL1        0.0000
     37 H          -3.4229   -3.2460    2.2735 H       1  UNL1        0.0000
     38 H           0.6183   -3.7541    2.4353 H       1  UNL1        0.0000
     39 H           2.3850   -2.2920    1.2777 H       1  UNL1        0.0000
     40 H           1.6760    2.0596   -0.2431 H       1  UNL1        0.0000
     41 H           1.2617    0.5615   -2.2303 H       1  UNL1        0.0000
     42 H          -0.4112    2.7007   -0.3680 H       1  UNL1        0.0000
     43 H          -1.3105    4.6199   -1.4876 H       1  UNL1        0.0000
     44 H          -3.6975    4.6690   -2.1618 H       1  UNL1        0.0000
     45 H          -5.1285    2.7845   -1.6431 H       1  UNL1        0.0000
     46 H           4.0293   -2.2996   -1.5665 H       1  UNL1        0.0000
     47 H           6.4345   -2.2764   -2.0220 H       1  UNL1        0.0000
     48 H           8.0030   -0.5507   -1.0459 H       1  UNL1        0.0000
     49 H           7.8106    1.8067    0.7849 H       1  UNL1        0.0000
     50 H           3.7858    1.8032    1.6167 H       1  UNL1        0.0000
@<TRIPOS>BOND
     1     1     2    1
     2     2     3    2
     3     3     4    1
     4     4     5   ar
     5     5     6   ar
     6     6     7   ar
     7     7     8   ar
     8     8     9   ar
     9     9    10   ar
    10    10    11   ar
    11    11    12   ar
    12    12    13    1
    13    13    14    2
    14    14    15    1
    15    15    16    1
    16    16    17   ar
    17    17    18   ar
    18    18    19   ar
    19    19    20   ar
    20    20    21   ar
    21    21    22   ar
    22    22    23   ar
    23    14    24    1
    24    24    25   ar
    25    25    26   ar
    26    26    27   ar
    27    27    28   ar
    28    28    29   ar
    29    29    30   ar
    30    30    31   ar
    31    31    32   ar
    32     5     1    1
    33    17     6   ar
    34    23    18   ar
    35    32    24   ar
    36    23     4   ar
    37    32    28   ar
    38    11     7   ar
    39    16    12   ar
    40     1    33    1
    41     1    34    1
    42     2    35    1
    43     3    36    1
    44     8    37    1
    45    10    38    1
    46    13    39    1
    47    15    40    1
    48    15    41    1
    49    19    42    1
    50    20    43    1
    51    21    44    1
    52    22    45    1
    53    25    46    1
    54    26    47    1
    55    27    48    1
    56    29    49    1
    57    31    50    1
