@<TRIPOS>MOLECULE
*****
 44 51 0 0 0
SMALL
GASTEIGER

@<TRIPOS>ATOM
      1 SI         -4.6814    1.6613   -1.5692 Si      1  UNL1        0.0000
      2 C          -6.0506    0.8486   -0.5945 C.2     1  UNL1        0.0000
      3 C          -5.5991   -0.0870    0.2561 C.2     1  UNL1        0.0000
      4 C          -4.1443   -0.2312    0.2214 C.ar    1  UNL1        0.0000
      5 C          -3.3821    0.5671   -0.6871 C.ar    1  UNL1        0.0000
      6 C          -1.9186    0.5189   -0.8072 C.ar    1  UNL1        0.0000
      7 C          -1.0576    1.1203   -1.7923 C.ar    1  UNL1        0.0000
      8 C          -1.5116    1.7552   -2.9286 C.ar    1  UNL1        0.0000
      9 S          -0.2585    2.3403   -3.9368 S.2     1  UNL1        0.0000
     10 C           0.9370    1.7057   -2.8992 C.ar    1  UNL1        0.0000
     11 C           0.4011    1.0603   -1.8032 C.ar    1  UNL1        0.0000
     12 C           1.2178    0.4662   -0.8046 C.ar    1  UNL1        0.0000
     13 C           2.6742    0.4682   -0.8336 C.ar    1  UNL1        0.0000
     14 C           3.4882   -0.0047    0.2098 C.ar    1  UNL1        0.0000
     15 C           4.9359    0.0333    0.1766 C.ar    1  UNL1        0.0000
     16 C           5.8288    0.7837    0.9188 C.ar    1  UNL1        0.0000
     17 N           7.1674    0.5778    0.6430 N.ar    1  UNL1        0.0000
     18 C           7.2757   -0.3194   -0.3116 C.ar    1  UNL1        0.0000
     19 S           5.8064   -0.9559   -0.9246 S.2     1  UNL1        0.0000
     20 C           2.7301   -0.3980    1.3169 C.ar    1  UNL1        0.0000
     21 C           3.2868   -0.8024    2.5107 C.ar    1  UNL1        0.0000
     22 S           2.0976   -1.0370    3.7183 S.2     1  UNL1        0.0000
     23 C           0.8343   -0.6195    2.6380 C.ar    1  UNL1        0.0000
     24 C           1.2745   -0.4304    1.3443 C.ar    1  UNL1        0.0000
     25 C           0.4028   -0.1067    0.2419 C.ar    1  UNL1        0.0000
     26 C          -1.0891   -0.2354    0.1356 C.ar    1  UNL1        0.0000
     27 C          -1.9168   -1.1416    0.8923 C.ar    1  UNL1        0.0000
     28 C          -1.4434   -2.2787    1.5153 C.ar    1  UNL1        0.0000
     29 S          -2.6657   -3.1377    2.3580 S.2     1  UNL1        0.0000
     30 C          -3.8874   -2.0975    1.7620 C.ar    1  UNL1        0.0000
     31 C          -3.3647   -1.1253    0.9409 C.ar    1  UNL1        0.0000
     32 H          -4.5231    3.0981   -1.2361 H       1  UNL1        0.0000
     33 H          -4.7865    1.3566   -3.0181 H       1  UNL1        0.0000
     34 H          -7.0818    1.1324   -0.7394 H       1  UNL1        0.0000
     35 H          -6.2344   -0.6701    0.9075 H       1  UNL1        0.0000
     36 H          -2.5092    1.9196   -3.2910 H       1  UNL1        0.0000
     37 H           1.9699    1.8531   -3.1774 H       1  UNL1        0.0000
     38 H           3.1847    0.8796   -1.7032 H       1  UNL1        0.0000
     39 H           5.5547    1.5028    1.6821 H       1  UNL1        0.0000
     40 H           8.2351   -0.6417   -0.6950 H       1  UNL1        0.0000
     41 H           4.3282   -0.9342    2.7718 H       1  UNL1        0.0000
     42 H          -0.1671   -0.5496    3.0375 H       1  UNL1        0.0000
     43 H          -0.4395   -2.6774    1.5401 H       1  UNL1        0.0000
     44 H          -4.9188   -2.2991    2.0140 H       1  UNL1        0.0000
@<TRIPOS>BOND
     1     1     2    1
     2     2     3    2
     3     3     4    1
     4     4     5   ar
     5     5     6   ar
     6     6     7   ar
     7     7     8   ar
     8     8     9   ar
     9     9    10   ar
    10    10    11   ar
    11    11    12   ar
    12    12    13   ar
    13    13    14   ar
    14    14    15    1
    15    15    16   ar
    16    16    17   ar
    17    17    18   ar
    18    18    19   ar
    19    14    20   ar
    20    20    21   ar
    21    21    22   ar
    22    22    23   ar
    23    23    24   ar
    24    24    25   ar
    25    25    26   ar
    26    26    27   ar
    27    27    28   ar
    28    28    29   ar
    29    29    30   ar
    30    30    31   ar
    31     5     1    1
    32    26     6   ar
    33    31    27   ar
    34    31     4   ar
    35    11     7   ar
    36    25    12   ar
    37    19    15   ar
    38    24    20   ar
    39     1    32    1
    40     1    33    1
    41     2    34    1
    42     3    35    1
    43     8    36    1
    44    10    37    1
    45    13    38    1
    46    16    39    1
    47    18    40    1
    48    21    41    1
    49    23    42    1
    50    28    43    1
    51    30    44    1
