@<TRIPOS>MOLECULE
*****
 43 50 0 0 0
SMALL
GASTEIGER

@<TRIPOS>ATOM
      1 SI          5.1873    1.5471   -0.6228 Si      1  UNL1        0.0000
      2 C           6.3953    0.2249   -0.0989 C.2     1  UNL1        0.0000
      3 C           5.7830   -0.8876    0.3370 C.2     1  UNL1        0.0000
      4 C           4.3267   -0.7837    0.2918 C.ar    1  UNL1        0.0000
      5 C           3.7105    0.4194   -0.1834 C.ar    1  UNL1        0.0000
      6 C           2.2560    0.6305   -0.2707 C.ar    1  UNL1        0.0000
      7 C           1.5261    1.7831   -0.7264 C.ar    1  UNL1        0.0000
      8 C           2.0964    2.9546   -1.1860 C.ar    1  UNL1        0.0000
      9 S           0.9542    4.1579   -1.6629 S.2     1  UNL1        0.0000
     10 C          -0.3631    3.1421   -1.2667 C.ar    1  UNL1        0.0000
     11 C           0.1149    1.9505   -0.7963 C.ar    1  UNL1        0.0000
     12 C          -0.7293    0.8762   -0.3758 C.ar    1  UNL1        0.0000
     13 C          -2.1417    0.9082   -0.3924 C.ar    1  UNL1        0.0000
     14 C          -2.6834   -0.2748    0.0719 C.ar    1  UNL1        0.0000
     15 S          -1.4101   -1.3554    0.5008 S.2     1  UNL1        0.0000
     16 C          -0.1205   -0.2783    0.0803 C.ar    1  UNL1        0.0000
     17 C           1.3086   -0.4228    0.1412 C.ar    1  UNL1        0.0000
     18 C           1.9812   -1.5907    0.6027 C.ar    1  UNL1        0.0000
     19 C           1.4617   -2.7794    1.0688 C.ar    1  UNL1        0.0000
     20 N           2.5049   -3.6177    1.4017 N.ar    1  UNL1        0.0000
     21 C           3.7018   -2.9951    1.1602 C.ar    1  UNL1        0.0000
     22 C           3.4084   -1.7473    0.6684 C.ar    1  UNL1        0.0000
     23 C          -4.0818   -0.6479    0.2149 C.ar    1  UNL1        0.0000
     24 S          -4.5849   -2.2039    0.8254 S.2     1  UNL1        0.0000
     25 C          -6.2556   -1.8583    0.6851 C.ar    1  UNL1        0.0000
     26 C          -6.3763   -0.6087    0.1934 C.ar    1  UNL1        0.0000
     27 C          -7.5119    0.1740   -0.1173 C.ar    1  UNL1        0.0000
     28 C          -7.1708    1.4345   -0.6121 C.ar    1  UNL1        0.0000
     29 S          -5.4569    1.7772   -0.7423 S.2     1  UNL1        0.0000
     30 C          -5.2025    0.1006   -0.0823 C.ar    1  UNL1        0.0000
     31 H           5.2598    1.8357   -2.0769 H       1  UNL1        0.0000
     32 H           5.2530    2.7493    0.2453 H       1  UNL1        0.0000
     33 H           7.4609    0.3839   -0.1584 H       1  UNL1        0.0000
     34 H           6.2933   -1.7734    0.6871 H       1  UNL1        0.0000
     35 H           3.1246    3.2427   -1.2966 H       1  UNL1        0.0000
     36 H          -1.3770    3.4884   -1.4059 H       1  UNL1        0.0000
     37 H          -2.7269    1.7501   -0.7255 H       1  UNL1        0.0000
     38 H           0.4582   -3.1469    1.2105 H       1  UNL1        0.0000
     39 H           2.3980   -4.5541    1.7698 H       1  UNL1        0.0000
     40 H           4.6363   -3.5000    1.3615 H       1  UNL1        0.0000
     41 H          -7.0134   -2.5762    0.9655 H       1  UNL1        0.0000
     42 H          -8.5407   -0.1429    0.0046 H       1  UNL1        0.0000
     43 H          -7.8545    2.2140   -0.9204 H       1  UNL1        0.0000
@<TRIPOS>BOND
     1     1     2    1
     2     2     3    2
     3     3     4    1
     4     4     5   ar
     5     5     6   ar
     6     6     7   ar
     7     7     8   ar
     8     8     9   ar
     9     9    10   ar
    10    10    11   ar
    11    11    12   ar
    12    12    13   ar
    13    13    14   ar
    14    14    15   ar
    15    15    16   ar
    16    16    17   ar
    17    17    18   ar
    18    18    19   ar
    19    19    20   ar
    20    20    21   ar
    21    21    22   ar
    22    14    23    1
    23    23    24   ar
    24    24    25   ar
    25    25    26   ar
    26    26    27   ar
    27    27    28   ar
    28    28    29   ar
    29    29    30   ar
    30     5     1    1
    31    17     6   ar
    32    22    18   ar
    33    30    23   ar
    34    22     4   ar
    35    30    26   ar
    36    11     7   ar
    37    16    12   ar
    38     1    31    1
    39     1    32    1
    40     2    33    1
    41     3    34    1
    42     8    35    1
    43    10    36    1
    44    13    37    1
    45    19    38    1
    46    20    39    1
    47    21    40    1
    48    25    41    1
    49    27    42    1
    50    28    43    1
