@<TRIPOS>MOLECULE
*****
 37 42 0 0 0
SMALL
GASTEIGER

@<TRIPOS>ATOM
      1 SI         -3.5948   -2.3928   -0.6477 Si      1  UNL1        0.0000
      2 C          -5.3157   -1.6553   -0.5356 C.2     1  UNL1        0.0000
      3 C          -5.3133   -0.3420   -0.2479 C.2     1  UNL1        0.0000
      4 C          -3.9666    0.2052   -0.0894 C.ar    1  UNL1        0.0000
      5 C          -2.8476   -0.6769   -0.2505 C.ar    1  UNL1        0.0000
      6 C          -1.4621   -0.2962   -0.1273 C.ar    1  UNL1        0.0000
      7 C          -0.4042   -1.2157   -0.2984 C.ar    1  UNL1        0.0000
      8 C           0.9242   -0.8048   -0.1704 C.ar    1  UNL1        0.0000
      9 SI          2.5005   -1.8285   -0.3495 Si      1  UNL1        0.0000
     10 C           3.4886   -0.2682    0.0204 C.2     1  UNL1        0.0000
     11 C           2.7020    0.8077    0.2336 C.2     1  UNL1        0.0000
     12 C           1.2587    0.5289    0.1313 C.ar    1  UNL1        0.0000
     13 C           0.2556    1.4683    0.3083 C.ar    1  UNL1        0.0000
     14 C          -1.1005    1.0690    0.1820 C.ar    1  UNL1        0.0000
     15 C          -2.2260    1.9399    0.3405 C.ar    1  UNL1        0.0000
     16 C          -2.1403    3.2820    0.6369 C.ar    1  UNL1        0.0000
     17 S          -3.6883    4.0186    0.7538 S.2     1  UNL1        0.0000
     18 C          -4.4946    2.5438    0.4076 C.ar    1  UNL1        0.0000
     19 C          -3.6040    1.5162    0.2081 C.ar    1  UNL1        0.0000
     20 C           4.9073   -0.3265    0.0481 C.ar    1  UNL1        0.0000
     21 N           5.6372   -1.4086   -0.1682 N.ar    1  UNL1        0.0000
     22 C           6.9858   -1.1347   -0.0698 C.ar    1  UNL1        0.0000
     23 C           7.3034    0.1686    0.2247 C.ar    1  UNL1        0.0000
     24 S           5.8714    1.0854    0.3848 S.2     1  UNL1        0.0000
     25 H          -3.2610   -2.8456   -2.0211 H       1  UNL1        0.0000
     26 H          -3.3313   -3.3817    0.4272 H       1  UNL1        0.0000
     27 H          -6.1889   -2.2694   -0.6951 H       1  UNL1        0.0000
     28 H          -6.2057    0.2582   -0.1421 H       1  UNL1        0.0000
     29 H          -0.6015   -2.2586   -0.5325 H       1  UNL1        0.0000
     30 H           2.6397   -2.3261   -1.7440 H       1  UNL1        0.0000
     31 H           2.5694   -2.8646    0.7150 H       1  UNL1        0.0000
     32 H           3.0426    1.8088    0.4626 H       1  UNL1        0.0000
     33 H           0.5179    2.4947    0.5406 H       1  UNL1        0.0000
     34 H          -1.2648    3.8942    0.7961 H       1  UNL1        0.0000
     35 H          -5.5746    2.5277    0.3731 H       1  UNL1        0.0000
     36 H           7.7011   -1.9333   -0.2243 H       1  UNL1        0.0000
     37 H           8.2803    0.6123    0.3497 H       1  UNL1        0.0000
@<TRIPOS>BOND
     1     1     2    1
     2     2     3    2
     3     3     4    1
     4     4     5   ar
     5     5     6   ar
     6     6     7   ar
     7     7     8   ar
     8     8     9    1
     9     9    10    1
    10    10    11    2
    11    11    12    1
    12    12    13   ar
    13    13    14   ar
    14    14    15   ar
    15    15    16   ar
    16    16    17   ar
    17    17    18   ar
    18    18    19   ar
    19    10    20    1
    20    20    21   ar
    21    21    22   ar
    22    22    23   ar
    23    23    24   ar
    24     5     1    1
    25    14     6   ar
    26    19    15   ar
    27    24    20   ar
    28    19     4   ar
    29    12     8   ar
    30     1    25    1
    31     1    26    1
    32     2    27    1
    33     3    28    1
    34     7    29    1
    35     9    30    1
    36     9    31    1
    37    11    32    1
    38    13    33    1
    39    16    34    1
    40    18    35    1
    41    22    36    1
    42    23    37    1
