@<TRIPOS>MOLECULE
*****
 45 52 0 0 0
SMALL
GASTEIGER

@<TRIPOS>ATOM
      1 SI         -4.8481    1.0620    2.1474 Si      1  UNL1        0.0000
      2 C          -6.4468    0.6521    1.2402 C.2     1  UNL1        0.0000
      3 C          -6.2440    0.1468    0.0105 C.2     1  UNL1        0.0000
      4 C          -4.8296    0.0380   -0.3245 C.ar    1  UNL1        0.0000
      5 C          -3.8499    0.4569    0.6360 C.ar    1  UNL1        0.0000
      6 C          -2.4144    0.4074    0.4430 C.ar    1  UNL1        0.0000
      7 C          -1.4887    0.8298    1.4152 C.ar    1  UNL1        0.0000
      8 C          -0.0891    0.7684    1.1950 C.ar    1  UNL1        0.0000
      9 C           0.8629    1.1939    2.1847 C.ar    1  UNL1        0.0000
     10 N           0.5769    1.6845    3.4055 N.ar    1  UNL1        0.0000
     11 S           2.0241    2.0027    4.1450 S.2     1  UNL1        0.0000
     12 N           3.0835    1.5359    2.9638 N.ar    1  UNL1        0.0000
     13 C           2.3507    1.1156    1.9164 C.ar    1  UNL1        0.0000
     14 C           2.8260    0.6232    0.6699 C.ar    1  UNL1        0.0000
     15 C           1.8456    0.2078   -0.2586 C.ar    1  UNL1        0.0000
     16 C           0.4469    0.2746   -0.0243 C.ar    1  UNL1        0.0000
     17 C          -0.4547   -0.1506   -1.0039 C.ar    1  UNL1        0.0000
     18 C          -1.8538   -0.0891   -0.7838 C.ar    1  UNL1        0.0000
     19 C          -2.8457   -0.4973   -1.7185 C.ar    1  UNL1        0.0000
     20 C          -2.6575   -1.0150   -2.9784 C.ar    1  UNL1        0.0000
     21 N          -3.9056   -1.2626   -3.5128 N.ar    1  UNL1        0.0000
     22 C          -4.8893   -0.9114   -2.6138 C.ar    1  UNL1        0.0000
     23 C          -4.2563   -0.4343   -1.4942 C.ar    1  UNL1        0.0000
     24 C           4.2451    0.5212    0.3823 C.ar    1  UNL1        0.0000
     25 S           5.2780    1.9253    0.3858 S.2     1  UNL1        0.0000
     26 C           6.6968    1.0287   -0.0650 C.ar    1  UNL1        0.0000
     27 C           6.3375   -0.2613   -0.2163 C.ar    1  UNL1        0.0000
     28 N           7.1431   -1.3015   -0.5761 N.ar    1  UNL1        0.0000
     29 C           6.2350   -2.3595   -0.5733 C.ar    1  UNL1        0.0000
     30 C           4.9380   -1.9316   -0.2152 C.ar    1  UNL1        0.0000
     31 C           5.0099   -0.5341    0.0214 C.ar    1  UNL1        0.0000
     32 H          -4.6992    2.5205    2.3793 H       1  UNL1        0.0000
     33 H          -4.6499    0.2011    3.3402 H       1  UNL1        0.0000
     34 H          -7.4030    0.8262    1.7091 H       1  UNL1        0.0000
     35 H          -7.0262   -0.1526   -0.6722 H       1  UNL1        0.0000
     36 H          -1.8335    1.2180    2.3715 H       1  UNL1        0.0000
     37 H           2.1936   -0.1798   -1.2189 H       1  UNL1        0.0000
     38 H          -0.0846   -0.5348   -1.9514 H       1  UNL1        0.0000
     39 H          -1.7690   -1.2339   -3.5535 H       1  UNL1        0.0000
     40 H          -4.0745   -1.6469   -4.4334 H       1  UNL1        0.0000
     41 H          -5.9337   -1.0369   -2.8636 H       1  UNL1        0.0000
     42 H           7.6630    1.4966   -0.1878 H       1  UNL1        0.0000
     43 H           8.1343   -1.2816   -0.7820 H       1  UNL1        0.0000
     44 H           6.5876   -3.3517   -0.8248 H       1  UNL1        0.0000
     45 H           4.0686   -2.5708   -0.1357 H       1  UNL1        0.0000
@<TRIPOS>BOND
     1     1     2    1
     2     2     3    2
     3     3     4    1
     4     4     5   ar
     5     5     6   ar
     6     6     7   ar
     7     7     8   ar
     8     8     9   ar
     9     9    10   ar
    10    10    11   ar
    11    11    12   ar
    12    12    13   ar
    13    13    14   ar
    14    14    15   ar
    15    15    16   ar
    16    16    17   ar
    17    17    18   ar
    18    18    19   ar
    19    19    20   ar
    20    20    21   ar
    21    21    22   ar
    22    22    23   ar
    23    14    24    1
    24    24    25   ar
    25    25    26   ar
    26    26    27   ar
    27    27    28   ar
    28    28    29   ar
    29    29    30   ar
    30    30    31   ar
    31     5     1    1
    32    18     6   ar
    33    23    19   ar
    34    31    24   ar
    35    23     4   ar
    36    31    27   ar
    37    16     8   ar
    38    13     9   ar
    39     1    32    1
    40     1    33    1
    41     2    34    1
    42     3    35    1
    43     7    36    1
    44    15    37    1
    45    17    38    1
    46    20    39    1
    47    21    40    1
    48    22    41    1
    49    26    42    1
    50    28    43    1
    51    29    44    1
    52    30    45    1
