@<TRIPOS>MOLECULE
*****
 44 50 0 0 0
SMALL
GASTEIGER

@<TRIPOS>ATOM
      1 SI          4.5393   -2.3312   -1.6484 Si      1  UNL1        0.0000
      2 C           6.2813   -1.6374   -1.6476 C.2     1  UNL1        0.0000
      3 C           6.3549   -0.3842   -1.1662 C.2     1  UNL1        0.0000
      4 C           5.0561    0.1459   -0.7549 C.ar    1  UNL1        0.0000
      5 C           3.8996   -0.6884   -0.9024 C.ar    1  UNL1        0.0000
      6 C           2.5516   -0.3154   -0.5453 C.ar    1  UNL1        0.0000
      7 C           1.4456   -1.1762   -0.7111 C.ar    1  UNL1        0.0000
      8 C           0.1318   -0.7980   -0.3573 C.ar    1  UNL1        0.0000
      9 C          -0.9655   -1.6387   -0.5164 C.ar    1  UNL1        0.0000
     10 N          -2.2393   -1.3139   -0.1899 N.ar    1  UNL1        0.0000
     11 C          -2.4881   -0.0895    0.3303 C.ar    1  UNL1        0.0000
     12 C          -1.4406    0.8156    0.5226 C.ar    1  UNL1        0.0000
     13 C          -0.1213    0.4686    0.1803 C.ar    1  UNL1        0.0000
     14 C           0.9512    1.3529    0.3605 C.ar    1  UNL1        0.0000
     15 C           2.2731    0.9794    0.0073 C.ar    1  UNL1        0.0000
     16 C           3.4329    1.8076    0.1520 C.ar    1  UNL1        0.0000
     17 C           3.4213    3.0883    0.6575 C.ar    1  UNL1        0.0000
     18 S           4.9918    3.7855    0.6865 S.2     1  UNL1        0.0000
     19 C           5.7080    2.3754    0.0201 C.ar    1  UNL1        0.0000
     20 C           4.7714    1.3983   -0.2180 C.ar    1  UNL1        0.0000
     21 C          -3.8902    0.2169    0.6696 C.ar    1  UNL1        0.0000
     22 C          -4.3627    1.4498    1.2289 C.ar    1  UNL1        0.0000
     23 C          -5.7334    1.7587    1.5642 C.ar    1  UNL1        0.0000
     24 C          -6.8102    0.8717    1.3827 C.ar    1  UNL1        0.0000
     25 C          -6.3519   -0.3182    0.8426 C.ar    1  UNL1        0.0000
     26 C          -7.1229   -1.4062    0.5342 C.ar    1  UNL1        0.0000
     27 O          -6.3301   -2.3919    0.0224 O.2     1  UNL1        0.0000
     28 C          -5.0458   -1.9200    0.0081 C.ar    1  UNL1        0.0000
     29 C          -4.9967   -0.6390    0.5050 C.ar    1  UNL1        0.0000
     30 H           4.3768   -3.4683   -0.7090 H       1  UNL1        0.0000
     31 H           4.0163   -2.5601   -3.0181 H       1  UNL1        0.0000
     32 H           7.1090   -2.2285   -2.0094 H       1  UNL1        0.0000
     33 H           7.2714    0.1829   -1.0863 H       1  UNL1        0.0000
     34 H           1.5877   -2.1723   -1.1250 H       1  UNL1        0.0000
     35 H          -0.8540   -2.6390   -0.9272 H       1  UNL1        0.0000
     36 H          -1.6263    1.7993    0.9383 H       1  UNL1        0.0000
     37 H           0.7597    2.3378    0.7777 H       1  UNL1        0.0000
     38 H           2.5901    3.6760    1.0184 H       1  UNL1        0.0000
     39 H           6.7744    2.3561   -0.1540 H       1  UNL1        0.0000
     40 H          -3.6504    2.2490    1.4327 H       1  UNL1        0.0000
     41 H          -5.9427    2.7435    1.9847 H       1  UNL1        0.0000
     42 H          -7.8339    1.1068    1.6348 H       1  UNL1        0.0000
     43 H          -8.1747   -1.6431    0.6049 H       1  UNL1        0.0000
     44 H          -4.3148   -2.6147   -0.3796 H       1  UNL1        0.0000
@<TRIPOS>BOND
     1     1     2    1
     2     2     3    2
     3     3     4    1
     4     4     5   ar
     5     5     6   ar
     6     6     7   ar
     7     7     8   ar
     8     8     9   ar
     9     9    10   ar
    10    10    11   ar
    11    11    12   ar
    12    12    13   ar
    13    13    14   ar
    14    14    15   ar
    15    15    16   ar
    16    16    17   ar
    17    17    18   ar
    18    18    19   ar
    19    19    20   ar
    20    11    21    1
    21    21    22   ar
    22    22    23   ar
    23    23    24   ar
    24    24    25   ar
    25    25    26   ar
    26    26    27   ar
    27    27    28   ar
    28    28    29   ar
    29     5     1    1
    30    15     6   ar
    31    20    16   ar
    32    29    21   ar
    33    20     4   ar
    34    29    25   ar
    35    13     8   ar
    36     1    30    1
    37     1    31    1
    38     2    32    1
    39     3    33    1
    40     7    34    1
    41     9    35    1
    42    12    36    1
    43    14    37    1
    44    17    38    1
    45    19    39    1
    46    22    40    1
    47    23    41    1
    48    24    42    1
    49    26    43    1
    50    28    44    1
