@<TRIPOS>MOLECULE
*****
 36 41 0 0 0
SMALL
GASTEIGER

@<TRIPOS>ATOM
      1 SI         -3.7561    2.2318   -1.4563 Si      1  UNL1        0.0000
      2 C          -5.2278    1.0910   -1.1793 C.2     1  UNL1        0.0000
      3 C          -4.8924   -0.0831   -0.6148 C.2     1  UNL1        0.0000
      4 C          -3.4628   -0.1891   -0.3527 C.ar    1  UNL1        0.0000
      5 C          -2.6105    0.9079   -0.7043 C.ar    1  UNL1        0.0000
      6 C          -1.1750    0.9439   -0.5030 C.ar    1  UNL1        0.0000
      7 C          -0.3486    2.0206   -0.8470 C.ar    1  UNL1        0.0000
      8 N           0.9968    2.0752   -0.6688 N.ar    1  UNL1        0.0000
      9 C           1.6066    1.0043   -0.1094 C.ar    1  UNL1        0.0000
     10 C           0.9131   -0.1304    0.2814 C.ar    1  UNL1        0.0000
     11 C          -0.4815   -0.1604    0.0845 C.ar    1  UNL1        0.0000
     12 C          -1.3482   -1.2351    0.4259 C.ar    1  UNL1        0.0000
     13 C          -1.0151   -2.4360    1.0053 C.ar    1  UNL1        0.0000
     14 N          -2.1816   -3.1602    1.1487 N.ar    1  UNL1        0.0000
     15 C          -3.2547   -2.4401    0.6682 C.ar    1  UNL1        0.0000
     16 C          -2.7631   -1.2425    0.2154 C.ar    1  UNL1        0.0000
     17 C           3.0562    1.1084    0.0428 C.ar    1  UNL1        0.0000
     18 S           3.8154    2.6388    0.4323 S.2     1  UNL1        0.0000
     19 C           5.4158    1.9776    0.4623 C.ar    1  UNL1        0.0000
     20 C           5.3169    0.6669    0.1829 C.ar    1  UNL1        0.0000
     21 O           6.3465   -0.2190    0.1027 O.2     1  UNL1        0.0000
     22 C           5.6421   -1.3642   -0.2185 C.ar    1  UNL1        0.0000
     23 C           4.2577   -1.1765   -0.3217 C.ar    1  UNL1        0.0000
     24 C           4.0493    0.1890   -0.0444 C.ar    1  UNL1        0.0000
     25 H          -3.4767    2.4581   -2.8956 H       1  UNL1        0.0000
     26 H          -3.8204    3.4549   -0.6191 H       1  UNL1        0.0000
     27 H          -6.2220    1.3999   -1.4642 H       1  UNL1        0.0000
     28 H          -5.5868   -0.8749   -0.3728 H       1  UNL1        0.0000
     29 H          -0.7497    2.9231   -1.3000 H       1  UNL1        0.0000
     30 H           1.4241   -0.9679    0.7394 H       1  UNL1        0.0000
     31 H          -0.0738   -2.8539    1.3339 H       1  UNL1        0.0000
     32 H          -2.2416   -4.0870    1.5504 H       1  UNL1        0.0000
     33 H          -4.2533   -2.8538    0.7002 H       1  UNL1        0.0000
     34 H           6.3016    2.5591    0.6705 H       1  UNL1        0.0000
     35 H           6.2661   -2.2390   -0.3480 H       1  UNL1        0.0000
     36 H           3.5335   -1.9374   -0.5741 H       1  UNL1        0.0000
@<TRIPOS>BOND
     1     1     2    1
     2     2     3    2
     3     3     4    1
     4     4     5   ar
     5     5     6   ar
     6     6     7   ar
     7     7     8   ar
     8     8     9   ar
     9     9    10   ar
    10    10    11   ar
    11    11    12   ar
    12    12    13   ar
    13    13    14   ar
    14    14    15   ar
    15    15    16   ar
    16     9    17    1
    17    17    18   ar
    18    18    19   ar
    19    19    20   ar
    20    20    21   ar
    21    21    22   ar
    22    22    23   ar
    23    23    24   ar
    24     5     1    1
    25    11     6   ar
    26    16    12   ar
    27    24    17   ar
    28    16     4   ar
    29    24    20   ar
    30     1    25    1
    31     1    26    1
    32     2    27    1
    33     3    28    1
    34     7    29    1
    35    10    30    1
    36    13    31    1
    37    14    32    1
    38    15    33    1
    39    19    34    1
    40    22    35    1
    41    23    36    1
