@<TRIPOS>MOLECULE
*****
 39 44 0 0 0
SMALL
GASTEIGER

@<TRIPOS>ATOM
      1 SI         -4.3870   -0.7305    2.6172 Si      1  UNL1        0.0000
      2 C          -5.9263   -0.0597    1.7890 C.2     1  UNL1        0.0000
      3 C          -5.6761    0.5557    0.6202 C.2     1  UNL1        0.0000
      4 C          -4.2574    0.5558    0.2675 C.ar    1  UNL1        0.0000
      5 C          -3.3349   -0.0646    1.1555 C.ar    1  UNL1        0.0000
      6 C          -1.9100   -0.1462    0.9453 C.ar    1  UNL1        0.0000
      7 C          -1.0714   -0.7451    1.8851 C.ar    1  UNL1        0.0000
      8 N           0.2693   -0.8832    1.7853 N.ar    1  UNL1        0.0000
      9 C           0.8749   -0.4535    0.6776 C.ar    1  UNL1        0.0000
     10 C           2.2423   -0.6592    0.6075 C.ar    1  UNL1        0.0000
     11 C           2.9586   -0.2907   -0.5205 C.ar    1  UNL1        0.0000
     12 N           2.3307    0.2699   -1.5722 N.ar    1  UNL1        0.0000
     13 C           0.9916    0.4651   -1.4845 C.ar    1  UNL1        0.0000
     14 C           0.1847    0.1622   -0.3780 C.ar    1  UNL1        0.0000
     15 C          -1.2526    0.3766   -0.2252 C.ar    1  UNL1        0.0000
     16 C          -2.2061    1.0601   -1.0849 C.ar    1  UNL1        0.0000
     17 C          -1.8944    1.8086   -2.1984 C.ar    1  UNL1        0.0000
     18 S          -3.2760    2.4586   -2.9888 S.2     1  UNL1        0.0000
     19 C          -4.3303    1.8197   -1.8058 C.ar    1  UNL1        0.0000
     20 C          -3.6422    1.1256   -0.8389 C.ar    1  UNL1        0.0000
     21 C           4.4132   -0.4804   -0.6648 C.ar    1  UNL1        0.0000
     22 C           5.1409   -1.4499    0.0430 C.ar    1  UNL1        0.0000
     23 C           6.5199   -1.5774   -0.1334 C.ar    1  UNL1        0.0000
     24 C           7.1511   -0.7279   -1.0231 C.ar    1  UNL1        0.0000
     25 N           6.5048    0.2156   -1.7337 N.ar    1  UNL1        0.0000
     26 C           5.1626    0.3096   -1.5415 C.ar    1  UNL1        0.0000
     27 H          -4.0582   -0.0322    3.8835 H       1  UNL1        0.0000
     28 H          -4.3589   -2.2120    2.6749 H       1  UNL1        0.0000
     29 H          -6.8964   -0.1806    2.2471 H       1  UNL1        0.0000
     30 H          -6.4369    1.0063   -0.0014 H       1  UNL1        0.0000
     31 H          -1.4543   -1.1581    2.8148 H       1  UNL1        0.0000
     32 H           2.7370   -1.1098    1.4618 H       1  UNL1        0.0000
     33 H           0.5862    0.8566   -2.4064 H       1  UNL1        0.0000
     34 H          -0.9459    2.0675   -2.6336 H       1  UNL1        0.0000
     35 H          -5.3910    2.0115   -1.8855 H       1  UNL1        0.0000
     36 H           4.6467   -2.1326    0.7292 H       1  UNL1        0.0000
     37 H           7.0851   -2.3270    0.4092 H       1  UNL1        0.0000
     38 H           8.2217   -0.7878   -1.1950 H       1  UNL1        0.0000
     39 H           4.6849    1.0830   -2.1404 H       1  UNL1        0.0000
@<TRIPOS>BOND
     1     1     2    1
     2     2     3    2
     3     3     4    1
     4     4     5   ar
     5     5     6   ar
     6     6     7   ar
     7     7     8   ar
     8     8     9   ar
     9     9    10   ar
    10    10    11   ar
    11    11    12   ar
    12    12    13   ar
    13    13    14   ar
    14    14    15   ar
    15    15    16   ar
    16    16    17   ar
    17    17    18   ar
    18    18    19   ar
    19    19    20   ar
    20    11    21    1
    21    21    22   ar
    22    22    23   ar
    23    23    24   ar
    24    24    25   ar
    25    25    26   ar
    26     5     1    1
    27    15     6   ar
    28    20    16   ar
    29    26    21   ar
    30    20     4   ar
    31    14     9   ar
    32     1    27    1
    33     1    28    1
    34     2    29    1
    35     3    30    1
    36     7    31    1
    37    10    32    1
    38    13    33    1
    39    17    34    1
    40    19    35    1
    41    22    36    1
    42    23    37    1
    43    24    38    1
    44    26    39    1
