@<TRIPOS>MOLECULE
*****
 31 36 0 0 0
SMALL
GASTEIGER

@<TRIPOS>ATOM
      1 S           1.1275   -2.0460    1.1862 S.2     1  UNL1       -0.0860
      2 C           2.7090   -1.4222    0.8614 C.ar    1  UNL1        0.0380
      3 C           4.0655   -1.7855    1.0942 C.ar    1  UNL1       -0.0300
      4 C           4.8154   -0.7774    0.5347 C.ar    1  UNL1        0.0033
      5 N           3.9821    0.1610   -0.0155 N.ar    1  UNL1       -0.3597
      6 C           2.6793   -0.2353    0.1852 C.ar    1  UNL1        0.0621
      7 C           1.3516    0.1559   -0.0629 C.ar    1  UNL1        0.0219
      8 C           0.3517   -0.6902    0.3996 C.ar    1  UNL1        0.0308
      9 C          -1.0325   -0.3779    0.1954 C.ar    1  UNL1        0.0053
     10 C          -2.1618   -1.1382    0.6065 C.ar    1  UNL1       -0.0021
     11 C          -2.1500   -2.3354    1.2883 C.ar    1  UNL1       -0.0160
     12 S          -3.7244   -2.9514    1.6088 S.2     1  UNL1       -0.1039
     13 C          -4.4710   -1.6216    0.8375 C.ar    1  UNL1       -0.0166
     14 C          -3.5370   -0.7386    0.3528 C.ar    1  UNL1       -0.0102
     15 C          -3.9399    0.4139   -0.3110 C.ar    1  UNL1       -0.0529
     16 C          -2.8455    1.1869   -0.7301 C.ar    1  UNL1       -0.0528
     17 C          -1.4564    0.8315   -0.5012 C.ar    1  UNL1       -0.0080
     18 C          -0.3595    1.6283   -0.9338 C.ar    1  UNL1       -0.0025
     19 C          -0.5102    2.8213   -1.6157 C.ar    1  UNL1       -0.0160
     20 S           0.9910    3.5654   -2.0106 S.2     1  UNL1       -0.1038
     21 C           1.8849    2.2974   -1.2717 C.ar    1  UNL1       -0.0159
     22 C           1.0280    1.3658   -0.7578 C.ar    1  UNL1       -0.0001
     23 H           4.4332   -2.6662    1.6025 H       1  UNL1        0.0644
     24 H           5.8890   -0.6477    0.4814 H       1  UNL1        0.0807
     25 H           4.2607    1.0065   -0.4914 H       1  UNL1        0.1654
     26 H          -1.3281   -2.9323    1.6438 H       1  UNL1        0.0700
     27 H          -5.5497   -1.5649    0.7846 H       1  UNL1        0.0699
     28 H          -4.9656    0.7051   -0.4964 H       1  UNL1        0.0624
     29 H          -3.0843    2.1080   -1.2590 H       1  UNL1        0.0624
     30 H          -1.4123    3.3295   -1.9223 H       1  UNL1        0.0700
     31 H           2.9591    2.3545   -1.2836 H       1  UNL1        0.0700
@<TRIPOS>BOND
     1     1     2   ar
     2     2     3   ar
     3     3     4   ar
     4     4     5   ar
     5     5     6   ar
     6     6     7   ar
     7     7     8   ar
     8     8     9   ar
     9     9    10   ar
    10    10    11   ar
    11    11    12   ar
    12    12    13   ar
    13    13    14   ar
    14    14    15   ar
    15    15    16   ar
    16    16    17   ar
    17    17    18   ar
    18    18    19   ar
    19    19    20   ar
    20    20    21   ar
    21    21    22   ar
    22     8     1   ar
    23    17     9   ar
    24    22    18   ar
    25     6     2   ar
    26    22     7   ar
    27    14    10   ar
    28     3    23    1
    29     4    24    1
    30     5    25    1
    31    11    26    1
    32    13    27    1
    33    15    28    1
    34    16    29    1
    35    19    30    1
    36    21    31    1
