@<TRIPOS>MOLECULE
*****
 30 34 0 0 0
SMALL
GASTEIGER

@<TRIPOS>ATOM
      1 SI         -0.3160    1.3221   -0.3345 Si      1  UNL1        0.0000
      2 C           0.7967   -0.2093   -0.4307 C.2     1  UNL1        0.0000
      3 C           0.1188   -1.3708   -0.3259 C.2     1  UNL1        0.0000
      4 C          -1.3313   -1.1820   -0.1457 C.ar    1  UNL1        0.0000
      5 C          -2.2672   -2.1999   -0.0032 C.ar    1  UNL1        0.0000
      6 C          -3.6277   -1.8826    0.1606 C.ar    1  UNL1        0.0000
      7 C          -4.0326   -0.5288    0.1784 C.ar    1  UNL1        0.0000
      8 C          -5.2676    0.1586    0.3173 C.ar    1  UNL1        0.0000
      9 C          -4.9772    1.5022    0.2476 C.ar    1  UNL1        0.0000
     10 O          -3.6439    1.6979    0.0744 O.2     1  UNL1        0.0000
     11 C          -3.0660    0.4659    0.0321 C.ar    1  UNL1        0.0000
     12 C          -1.7260    0.1728   -0.1296 C.ar    1  UNL1        0.0000
     13 C           2.1851   -0.1198   -0.6348 C.ar    1  UNL1        0.0000
     14 S           2.9517   -0.5253   -2.1299 S.2     1  UNL1        0.0000
     15 C           4.5255   -0.1472   -1.5410 C.ar    1  UNL1        0.0000
     16 C           4.4044    0.2504   -0.2554 C.ar    1  UNL1        0.0000
     17 C           5.3405    0.6660    0.7213 C.ar    1  UNL1        0.0000
     18 C           4.7331    0.9789    1.9426 C.ar    1  UNL1        0.0000
     19 S           2.9853    0.7956    2.0154 S.2     1  UNL1        0.0000
     20 C           3.1194    0.2758    0.2879 C.ar    1  UNL1        0.0000
     21 H          -0.0333    2.1484    0.8682 H       1  UNL1        0.0000
     22 H          -0.3280    2.0697   -1.6199 H       1  UNL1        0.0000
     23 H           0.5585   -2.3584   -0.3679 H       1  UNL1        0.0000
     24 H          -1.9577   -3.2416   -0.0169 H       1  UNL1        0.0000
     25 H          -4.3609   -2.6763    0.2726 H       1  UNL1        0.0000
     26 H          -6.2486   -0.2735    0.4518 H       1  UNL1        0.0000
     27 H          -5.5761    2.4007    0.3011 H       1  UNL1        0.0000
     28 H           5.4031   -0.2473   -2.1637 H       1  UNL1        0.0000
     29 H           6.4103    0.7400    0.5685 H       1  UNL1        0.0000
     30 H           5.2277    1.3179    2.8428 H       1  UNL1        0.0000
@<TRIPOS>BOND
     1     1     2    1
     2     2     3    2
     3     3     4    1
     4     4     5   ar
     5     5     6   ar
     6     6     7   ar
     7     7     8   ar
     8     8     9   ar
     9     9    10   ar
    10    10    11   ar
    11    11    12   ar
    12     2    13    1
    13    13    14   ar
    14    14    15   ar
    15    15    16   ar
    16    16    17   ar
    17    17    18   ar
    18    18    19   ar
    19    19    20   ar
    20    12     1    1
    21    20    13   ar
    22    12     4   ar
    23    20    16   ar
    24    11     7   ar
    25     1    21    1
    26     1    22    1
    27     3    23    1
    28     5    24    1
    29     6    25    1
    30     8    26    1
    31     9    27    1
    32    15    28    1
    33    17    29    1
    34    18    30    1
