@<TRIPOS>MOLECULE
*****
 45 52 0 0 0
SMALL
GASTEIGER

@<TRIPOS>ATOM
      1 SI         -5.2750   -1.6187    1.4588 Si      1  UNL1        0.0000
      2 C          -6.7358   -0.8566    0.5251 C.2     1  UNL1        0.0000
      3 C          -6.3695    0.1007   -0.3458 C.2     1  UNL1        0.0000
      4 C          -4.9262    0.3184   -0.3651 C.ar    1  UNL1        0.0000
      5 C          -4.1117   -0.4698    0.4986 C.ar    1  UNL1        0.0000
      6 C          -2.7065   -0.3939    0.6235 C.ar    1  UNL1        0.0000
      7 N          -2.1335   -1.1633    1.5579 N.ar    1  UNL1        0.0000
      8 C          -0.7919   -1.1189    1.7374 C.ar    1  UNL1        0.0000
      9 C           0.1087   -0.4114    0.9585 C.ar    1  UNL1        0.0000
     10 C           1.5229   -0.5232    1.2440 C.ar    1  UNL1        0.0000
     11 C           2.5467    0.0477    0.4624 C.ar    1  UNL1        0.0000
     12 C           3.9544   -0.0976    0.7203 C.ar    1  UNL1        0.0000
     13 S           4.7338    0.6362    2.0809 S.2     1  UNL1        0.0000
     14 C           6.3009    0.0062    1.6587 C.ar    1  UNL1        0.0000
     15 C           6.1547   -0.7283    0.5372 C.ar    1  UNL1        0.0000
     16 C           6.8988   -1.5217   -0.3693 C.ar    1  UNL1        0.0000
     17 C           5.9936   -1.9940   -1.3443 C.ar    1  UNL1        0.0000
     18 N           4.6970   -1.5412   -1.1063 N.ar    1  UNL1        0.0000
     19 C           4.8788   -0.7931    0.0227 C.ar    1  UNL1        0.0000
     20 C           2.0089    0.6900   -0.6463 C.ar    1  UNL1        0.0000
     21 C           2.6898    1.2763   -1.6822 C.ar    1  UNL1        0.0000
     22 O           1.8055    1.6703   -2.6410 O.2     1  UNL1        0.0000
     23 C           0.5528    1.3580   -2.1954 C.ar    1  UNL1        0.0000
     24 C           0.6087    0.8331   -0.9271 C.ar    1  UNL1        0.0000
     25 C          -0.4639    0.3578   -0.1062 C.ar    1  UNL1        0.0000
     26 C          -1.9165    0.4766   -0.2006 C.ar    1  UNL1        0.0000
     27 C          -2.7499    1.3646   -0.9790 C.ar    1  UNL1        0.0000
     28 C          -2.3212    2.5257   -1.5804 C.ar    1  UNL1        0.0000
     29 S          -3.5749    3.3311   -2.4362 S.2     1  UNL1        0.0000
     30 C          -4.7564    2.2254   -1.8734 C.ar    1  UNL1        0.0000
     31 C          -4.1954    1.2670   -1.0643 C.ar    1  UNL1        0.0000
     32 H          -5.3781   -1.3066    2.9075 H       1  UNL1        0.0000
     33 H          -5.1342   -3.0537    1.1010 H       1  UNL1        0.0000
     34 H          -7.7409   -1.1975    0.7208 H       1  UNL1        0.0000
     35 H          -7.0578    0.6548   -0.9677 H       1  UNL1        0.0000
     36 H          -0.4492   -1.7430    2.5614 H       1  UNL1        0.0000
     37 H           1.8283   -1.1155    2.1105 H       1  UNL1        0.0000
     38 H           7.1760    0.2161    2.2563 H       1  UNL1        0.0000
     39 H           7.9578   -1.7421   -0.3411 H       1  UNL1        0.0000
     40 H           6.1757   -2.6298   -2.2016 H       1  UNL1        0.0000
     41 H           3.8353   -1.7039   -1.6141 H       1  UNL1        0.0000
     42 H           3.7329    1.4458   -1.9134 H       1  UNL1        0.0000
     43 H          -0.2313    1.5552   -2.9115 H       1  UNL1        0.0000
     44 H          -1.3484    2.9915   -1.5654 H       1  UNL1        0.0000
     45 H          -5.7937    2.3755   -2.1381 H       1  UNL1        0.0000
@<TRIPOS>BOND
     1     1     2    1
     2     2     3    2
     3     3     4    1
     4     4     5   ar
     5     5     6   ar
     6     6     7   ar
     7     7     8   ar
     8     8     9   ar
     9     9    10   ar
    10    10    11   ar
    11    11    12    1
    12    12    13   ar
    13    13    14   ar
    14    14    15   ar
    15    15    16   ar
    16    16    17   ar
    17    17    18   ar
    18    18    19   ar
    19    11    20   ar
    20    20    21   ar
    21    21    22   ar
    22    22    23   ar
    23    23    24   ar
    24    24    25   ar
    25    25    26   ar
    26    26    27   ar
    27    27    28   ar
    28    28    29   ar
    29    29    30   ar
    30    30    31   ar
    31     5     1    1
    32    26     6   ar
    33    31    27   ar
    34    31     4   ar
    35    25     9   ar
    36    19    12   ar
    37    24    20   ar
    38    19    15   ar
    39     1    32    1
    40     1    33    1
    41     2    34    1
    42     3    35    1
    43     8    36    1
    44    10    37    1
    45    14    38    1
    46    16    39    1
    47    17    40    1
    48    18    41    1
    49    21    42    1
    50    23    43    1
    51    28    44    1
    52    30    45    1
