@<TRIPOS>MOLECULE
*****
 32 37 0 0 0
SMALL
GASTEIGER

@<TRIPOS>ATOM
      1 SI         -3.8205    2.0121    0.4101 Si      1  UNL1        0.0000
      2 C          -5.4348    1.0397    0.1489 C.2     1  UNL1        0.0000
      3 C          -5.2335   -0.2626   -0.1343 C.2     1  UNL1        0.0000
      4 C          -3.8120   -0.6139   -0.1721 C.ar    1  UNL1        0.0000
      5 C          -2.9145    0.4486    0.0888 C.ar    1  UNL1        0.0000
      6 C          -1.5495    0.2122    0.0749 C.ar    1  UNL1        0.0000
      7 O          -0.5409    1.1093    0.3023 O.2     1  UNL1        0.0000
      8 C           0.6340    0.4185    0.1822 C.ar    1  UNL1        0.0000
      9 C           1.9134    0.9392    0.3337 C.ar    1  UNL1        0.0000
     10 C           2.9791    0.0406    0.1644 C.ar    1  UNL1        0.0000
     11 C           2.6583   -1.2892   -0.1396 C.ar    1  UNL1        0.0000
     12 N           1.4124   -1.8137   -0.2910 N.ar    1  UNL1        0.0000
     13 C           0.4055   -0.9231   -0.1218 C.ar    1  UNL1        0.0000
     14 C          -0.9838   -1.0225   -0.1831 C.ar    1  UNL1        0.0000
     15 C          -1.8366   -2.1408   -0.4551 C.ar    1  UNL1        0.0000
     16 N          -1.3912   -3.3591   -0.7128 N.ar    1  UNL1        0.0000
     17 S          -2.8045   -4.2282   -0.9455 S.2     1  UNL1        0.0000
     18 N          -3.9544   -3.0306   -0.7122 N.ar    1  UNL1        0.0000
     19 C          -3.2811   -1.8943   -0.4412 C.ar    1  UNL1        0.0000
     20 C           4.3591    0.5379    0.3135 C.ar    1  UNL1        0.0000
     21 N           4.6547    1.7936    0.6004 N.ar    1  UNL1        0.0000
     22 C           6.0218    1.9662    0.6771 C.ar    1  UNL1        0.0000
     23 C           6.7737    0.8377    0.4479 C.ar    1  UNL1        0.0000
     24 S           5.7386   -0.4848    0.1254 S.2     1  UNL1        0.0000
     25 H          -3.7183    2.4942    1.8094 H       1  UNL1        0.0000
     26 H          -3.6491    3.0390   -0.6467 H       1  UNL1        0.0000
     27 H          -6.3878    1.5397    0.2329 H       1  UNL1        0.0000
     28 H          -6.0109   -0.9927   -0.3182 H       1  UNL1        0.0000
     29 H           2.0685    1.9862    0.5703 H       1  UNL1        0.0000
     30 H           3.4350   -2.0379   -0.2838 H       1  UNL1        0.0000
     31 H           6.4203    2.9473    0.9059 H       1  UNL1        0.0000
     32 H           7.8489    0.7315    0.4546 H       1  UNL1        0.0000
@<TRIPOS>BOND
     1     1     2    1
     2     2     3    2
     3     3     4    1
     4     4     5   ar
     5     5     6   ar
     6     6     7   ar
     7     7     8   ar
     8     8     9   ar
     9     9    10   ar
    10    10    11   ar
    11    11    12   ar
    12    12    13   ar
    13    13    14   ar
    14    14    15   ar
    15    15    16   ar
    16    16    17   ar
    17    17    18   ar
    18    18    19   ar
    19    10    20    1
    20    20    21   ar
    21    21    22   ar
    22    22    23   ar
    23    23    24   ar
    24     5     1    1
    25    14     6   ar
    26    19    15   ar
    27    24    20   ar
    28    19     4   ar
    29    13     8   ar
    30     1    25    1
    31     1    26    1
    32     2    27    1
    33     3    28    1
    34     9    29    1
    35    11    30    1
    36    22    31    1
    37    23    32    1
