@<TRIPOS>MOLECULE
*****
 38 44 0 0 0
SMALL
GASTEIGER

@<TRIPOS>ATOM
      1 SI         -4.1143    2.2206   -1.9167 Si      1  UNL1        0.0000
      2 C          -5.8354    1.5039   -1.4994 C.2     1  UNL1        0.0000
      3 C          -5.7857    0.4227   -0.6957 C.2     1  UNL1        0.0000
      4 C          -4.4163    0.0680   -0.3430 C.ar    1  UNL1        0.0000
      5 C          -3.3886    0.8878   -0.8822 C.ar    1  UNL1        0.0000
      6 C          -2.0433    0.6315   -0.6038 C.ar    1  UNL1        0.0000
      7 O          -0.9402    1.3150   -1.0371 O.2     1  UNL1        0.0000
      8 C           0.1569    0.6887   -0.5010 C.ar    1  UNL1        0.0000
      9 C           1.4725    1.0825   -0.7058 C.ar    1  UNL1        0.0000
     10 C           2.4272    0.2997   -0.0631 C.ar    1  UNL1        0.0000
     11 N           2.0969   -0.7698    0.7070 N.ar    1  UNL1        0.0000
     12 C           0.8013   -1.1327    0.8900 C.ar    1  UNL1        0.0000
     13 C          -0.2129   -0.4030    0.2829 C.ar    1  UNL1        0.0000
     14 C          -1.6033   -0.4109    0.1970 C.ar    1  UNL1        0.0000
     15 C          -2.6023   -1.2581    0.7584 C.ar    1  UNL1        0.0000
     16 C          -2.5303   -2.3457    1.5684 C.ar    1  UNL1        0.0000
     17 O          -3.8174   -2.7718    1.7990 O.2     1  UNL1        0.0000
     18 C          -4.6681   -1.9300    1.1197 C.ar    1  UNL1        0.0000
     19 C          -3.9487   -0.9677    0.4546 C.ar    1  UNL1        0.0000
     20 C           3.8640    0.5660   -0.1653 C.ar    1  UNL1        0.0000
     21 S           4.5517    1.8770   -1.0884 S.2     1  UNL1        0.0000
     22 C           6.1894    1.4717   -0.6810 C.ar    1  UNL1        0.0000
     23 C           6.1500    0.3867    0.1179 C.ar    1  UNL1        0.0000
     24 C           7.0262   -0.4654    0.8052 C.ar    1  UNL1        0.0000
     25 C           6.1953   -1.3965    1.4382 C.ar    1  UNL1        0.0000
     26 O           4.8472   -1.2034    1.2067 O.2     1  UNL1        0.0000
     27 C           4.8960   -0.1052    0.3986 C.ar    1  UNL1        0.0000
     28 H          -3.9705    3.5849   -1.3500 H       1  UNL1        0.0000
     29 H          -3.8375    2.0902   -3.3691 H       1  UNL1        0.0000
     30 H          -6.7218    1.9695   -1.9024 H       1  UNL1        0.0000
     31 H          -6.6458   -0.1289   -0.3439 H       1  UNL1        0.0000
     32 H           1.7042    1.9375   -1.3236 H       1  UNL1        0.0000
     33 H           0.6338   -1.9982    1.5198 H       1  UNL1        0.0000
     34 H          -1.7520   -2.9221    2.0463 H       1  UNL1        0.0000
     35 H          -5.7190   -2.1613    1.2217 H       1  UNL1        0.0000
     36 H           7.0262    2.0468   -1.0508 H       1  UNL1        0.0000
     37 H           8.1048   -0.4376    0.8559 H       1  UNL1        0.0000
     38 H           6.4098   -2.2427    2.0776 H       1  UNL1        0.0000
@<TRIPOS>BOND
     1     1     2    1
     2     2     3    2
     3     3     4    1
     4     4     5   ar
     5     5     6   ar
     6     6     7   ar
     7     7     8   ar
     8     8     9   ar
     9     9    10   ar
    10    10    11   ar
    11    11    12   ar
    12    12    13   ar
    13    13    14   ar
    14    14    15   ar
    15    15    16   ar
    16    16    17   ar
    17    17    18   ar
    18    18    19   ar
    19    10    20    1
    20    20    21   ar
    21    21    22   ar
    22    22    23   ar
    23    23    24   ar
    24    24    25   ar
    25    25    26   ar
    26    26    27   ar
    27     5     1    1
    28    14     6   ar
    29    19    15   ar
    30    27    20   ar
    31    19     4   ar
    32    27    23   ar
    33    13     8   ar
    34     1    28    1
    35     1    29    1
    36     2    30    1
    37     3    31    1
    38     9    32    1
    39    12    33    1
    40    16    34    1
    41    18    35    1
    42    22    36    1
    43    24    37    1
    44    25    38    1
