@<TRIPOS>MOLECULE
*****
 39 45 0 0 0
SMALL
GASTEIGER

@<TRIPOS>ATOM
      1 SI         -4.2522    0.6247    2.6194 Si      1  UNL1        0.0000
      2 C          -5.7656    0.1411    1.6107 C.2     1  UNL1        0.0000
      3 C          -5.4587   -0.2892    0.3723 C.2     1  UNL1        0.0000
      4 C          -4.0073   -0.2914    0.0673 C.ar    1  UNL1        0.0000
      5 C          -3.2376    0.1677    1.1623 C.ar    1  UNL1        0.0000
      6 C          -1.8610    0.2294    1.0469 C.ar    1  UNL1        0.0000
      7 O          -1.0045    0.6497    2.0183 O.2     1  UNL1        0.0000
      8 C           0.2354    0.5418    1.4678 C.ar    1  UNL1        0.0000
      9 C           1.5212    0.8203    1.9635 C.ar    1  UNL1        0.0000
     10 C           2.4818    0.5388    0.9963 C.ar    1  UNL1        0.0000
     11 S           1.7521   -0.0521   -0.4677 S.2     1  UNL1        0.0000
     12 C           0.1640    0.0733    0.2029 C.ar    1  UNL1        0.0000
     13 C          -1.2071   -0.1491   -0.1216 C.ar    1  UNL1        0.0000
     14 C          -1.9699   -0.6141   -1.2340 C.ar    1  UNL1        0.0000
     15 C          -1.3214   -1.0015   -2.4257 C.ar    1  UNL1        0.0000
     16 C          -2.0577   -1.4571   -3.5180 C.ar    1  UNL1        0.0000
     17 C          -3.4433   -1.5326   -3.4385 C.ar    1  UNL1        0.0000
     18 C          -4.1019   -1.1528   -2.2656 C.ar    1  UNL1        0.0000
     19 C          -3.3912   -0.6863   -1.1381 C.ar    1  UNL1        0.0000
     20 C           3.9203    0.7034    1.1488 C.ar    1  UNL1        0.0000
     21 S           4.6009    1.3025    2.6415 S.2     1  UNL1        0.0000
     22 C           6.2163    1.2192    2.0820 C.ar    1  UNL1        0.0000
     23 C           6.1896    0.7531    0.8170 C.ar    1  UNL1        0.0000
     24 C           7.2261    0.4919   -0.1082 C.ar    1  UNL1        0.0000
     25 C           6.7439    0.0086   -1.3261 C.ar    1  UNL1        0.0000
     26 S           5.0055   -0.1699   -1.4545 S.2     1  UNL1        0.0000
     27 C           4.9431    0.4531    0.2560 C.ar    1  UNL1        0.0000
     28 H          -4.2678    2.0768    2.9288 H       1  UNL1        0.0000
     29 H          -4.0904   -0.2744    3.7898 H       1  UNL1        0.0000
     30 H          -6.7554    0.2211    2.0332 H       1  UNL1        0.0000
     31 H          -6.1995   -0.6085   -0.3469 H       1  UNL1        0.0000
     32 H           1.7153    1.1990    2.9578 H       1  UNL1        0.0000
     33 H          -0.2401   -0.9539   -2.5185 H       1  UNL1        0.0000
     34 H          -1.5473   -1.7529   -4.4310 H       1  UNL1        0.0000
     35 H          -4.0175   -1.8880   -4.2906 H       1  UNL1        0.0000
     36 H          -5.1858   -1.2279   -2.2470 H       1  UNL1        0.0000
     37 H           7.0524    1.5099    2.7023 H       1  UNL1        0.0000
     38 H           8.2827    0.6406    0.0794 H       1  UNL1        0.0000
     39 H           7.3322   -0.2645   -2.1917 H       1  UNL1        0.0000
@<TRIPOS>BOND
     1     1     2    1
     2     2     3    2
     3     3     4    1
     4     4     5   ar
     5     5     6   ar
     6     6     7   ar
     7     7     8   ar
     8     8     9   ar
     9     9    10   ar
    10    10    11   ar
    11    11    12   ar
    12    12    13   ar
    13    13    14   ar
    14    14    15   ar
    15    15    16   ar
    16    16    17   ar
    17    17    18   ar
    18    18    19   ar
    19    10    20    1
    20    20    21   ar
    21    21    22   ar
    22    22    23   ar
    23    23    24   ar
    24    24    25   ar
    25    25    26   ar
    26    26    27   ar
    27     5     1    1
    28    13     6   ar
    29    19    14   ar
    30    27    20   ar
    31    19     4   ar
    32    27    23   ar
    33    12     8   ar
    34     1    28    1
    35     1    29    1
    36     2    30    1
    37     3    31    1
    38     9    32    1
    39    15    33    1
    40    16    34    1
    41    17    35    1
    42    18    36    1
    43    22    37    1
    44    24    38    1
    45    25    39    1
