@<TRIPOS>MOLECULE
*****
 33 38 0 0 0
SMALL
GASTEIGER

@<TRIPOS>ATOM
      1 SI          3.6708    1.3039   -2.1419 Si      1  UNL1        0.0000
      2 C           5.2667    0.6776   -1.2974 C.2     1  UNL1        0.0000
      3 C           5.0375   -0.0515   -0.1868 C.2     1  UNL1        0.0000
      4 C           3.6128   -0.1829    0.0981 C.ar    1  UNL1        0.0000
      5 C           2.7234    0.4610   -0.8160 C.ar    1  UNL1        0.0000
      6 C           1.3411    0.3946   -0.6316 C.ar    1  UNL1        0.0000
      7 O           0.3331    0.9371   -1.3860 O.2     1  UNL1        0.0000
      8 C          -0.8356    0.5625   -0.7512 C.ar    1  UNL1        0.0000
      9 C          -2.1914    0.8079   -1.0376 C.ar    1  UNL1        0.0000
     10 C          -2.9812    0.1997   -0.0747 C.ar    1  UNL1        0.0000
     11 S          -2.0658   -0.6413    1.1345 S.2     1  UNL1        0.0000
     12 C          -0.5935   -0.1887    0.3639 C.ar    1  UNL1        0.0000
     13 C           0.7861   -0.2841    0.4232 C.ar    1  UNL1        0.0000
     14 C           1.5931   -0.9465    1.3703 C.ar    1  UNL1        0.0000
     15 C           1.3399   -1.6771    2.4846 C.ar    1  UNL1        0.0000
     16 O           2.5556   -2.0680    2.9982 O.2     1  UNL1        0.0000
     17 C           3.5434   -1.5644    2.1803 C.ar    1  UNL1        0.0000
     18 C           2.9845   -0.8542    1.1464 C.ar    1  UNL1        0.0000
     19 C          -4.4227    0.2360   -0.0417 C.ar    1  UNL1        0.0000
     20 C          -5.3141   -0.3276    0.8603 C.ar    1  UNL1        0.0000
     21 C          -6.6225    0.0085    0.4342 C.ar    1  UNL1        0.0000
     22 C          -6.4666    0.7586   -0.7035 C.ar    1  UNL1        0.0000
     23 O          -5.1519    0.9021   -0.9993 O.2     1  UNL1        0.0000
     24 H           3.6120    2.7863   -2.0948 H       1  UNL1        0.0000
     25 H           3.5268    0.6926   -3.4868 H       1  UNL1        0.0000
     26 H           6.2280    0.9215   -1.7232 H       1  UNL1        0.0000
     27 H           5.8037   -0.4947    0.4330 H       1  UNL1        0.0000
     28 H          -2.5658    1.3803   -1.8759 H       1  UNL1        0.0000
     29 H           0.4666   -2.0041    3.0299 H       1  UNL1        0.0000
     30 H           4.5531   -1.8055    2.4812 H       1  UNL1        0.0000
     31 H          -5.0530   -0.9159    1.7292 H       1  UNL1        0.0000
     32 H          -7.5595   -0.2630    0.8995 H       1  UNL1        0.0000
     33 H          -7.1544    1.2395   -1.3851 H       1  UNL1        0.0000
@<TRIPOS>BOND
     1     1     2    1
     2     2     3    2
     3     3     4    1
     4     4     5   ar
     5     5     6   ar
     6     6     7   ar
     7     7     8   ar
     8     8     9   ar
     9     9    10   ar
    10    10    11   ar
    11    11    12   ar
    12    12    13   ar
    13    13    14   ar
    14    14    15   ar
    15    15    16   ar
    16    16    17   ar
    17    17    18   ar
    18    10    19    1
    19    19    20   ar
    20    20    21   ar
    21    21    22   ar
    22    22    23   ar
    23     5     1    1
    24    13     6   ar
    25    18    14   ar
    26    23    19   ar
    27    18     4   ar
    28    12     8   ar
    29     1    24    1
    30     1    25    1
    31     2    26    1
    32     3    27    1
    33     9    28    1
    34    15    29    1
    35    17    30    1
    36    20    31    1
    37    21    32    1
    38    22    33    1
