@<TRIPOS>MOLECULE
*****
 37 42 0 0 0
SMALL
GASTEIGER

@<TRIPOS>ATOM
      1 SI          4.2351    2.5289    0.1661 Si      1  UNL1        0.0000
      2 C           5.7195    1.3463    0.2535 C.2     1  UNL1        0.0000
      3 C           5.3624    0.0474    0.2521 C.2     1  UNL1        0.0000
      4 C           3.9154   -0.1268    0.1831 C.ar    1  UNL1        0.0000
      5 C           3.1208    1.0479    0.1295 C.ar    1  UNL1        0.0000
      6 C           1.7068    1.0224    0.0606 C.ar    1  UNL1        0.0000
      7 S           0.5613    2.3384   -0.0108 S.2     1  UNL1        0.0000
      8 C          -0.7672    1.2820   -0.0648 C.ar    1  UNL1        0.0000
      9 C          -2.1458    1.6410   -0.1401 C.2     1  UNL1        0.0000
     10 C          -2.9511    0.5551   -0.1897 C.2     1  UNL1        0.0000
     11 SI         -1.9278   -1.0722   -0.0923 Si      1  UNL1        0.0000
     12 C          -0.3731   -0.0412   -0.0295 C.ar    1  UNL1        0.0000
     13 C           1.0004   -0.1900    0.0408 C.ar    1  UNL1        0.0000
     14 C           1.7718   -1.4068    0.0948 C.ar    1  UNL1        0.0000
     15 C           1.3879   -2.7157    0.0947 C.ar    1  UNL1        0.0000
     16 N           2.5652   -3.4380    0.1632 N.ar    1  UNL1        0.0000
     17 C           3.6535   -2.5844    0.2036 C.ar    1  UNL1        0.0000
     18 C           3.1746   -1.2954    0.1621 C.ar    1  UNL1        0.0000
     19 C          -4.3593    0.6226   -0.2428 C.ar    1  UNL1        0.0000
     20 C          -5.2839    1.4732    0.3364 C.ar    1  UNL1        0.0000
     21 C          -6.5740    1.0722   -0.0856 C.ar    1  UNL1        0.0000
     22 C          -6.4101   -0.0017   -0.9287 C.ar    1  UNL1        0.0000
     23 N          -5.0669   -0.2606   -1.0279 N.ar    1  UNL1        0.0000
     24 H           4.1297    3.3362    1.4078 H       1  UNL1        0.0000
     25 H           4.2527    3.3048   -1.0997 H       1  UNL1        0.0000
     26 H           6.7236    1.7385    0.2982 H       1  UNL1        0.0000
     27 H           6.0481   -0.7860    0.2963 H       1  UNL1        0.0000
     28 H          -2.4844    2.6695   -0.1620 H       1  UNL1        0.0000
     29 H          -2.2196   -1.8322    1.1505 H       1  UNL1        0.0000
     30 H          -2.1166   -1.8614   -1.3398 H       1  UNL1        0.0000
     31 H           0.4368   -3.2242    0.0571 H       1  UNL1        0.0000
     32 H           2.6246   -4.4479    0.1824 H       1  UNL1        0.0000
     33 H           4.6564   -2.9850    0.2590 H       1  UNL1        0.0000
     34 H          -5.0533    2.2934    1.0045 H       1  UNL1        0.0000
     35 H          -7.5178    1.5239    0.1909 H       1  UNL1        0.0000
     36 H          -7.1298   -0.5973   -1.4740 H       1  UNL1        0.0000
     37 H          -4.6659   -0.9772   -1.6181 H       1  UNL1        0.0000
@<TRIPOS>BOND
     1     1     2    1
     2     2     3    2
     3     3     4    1
     4     4     5   ar
     5     5     6   ar
     6     6     7   ar
     7     7     8   ar
     8     8     9    1
     9     9    10    2
    10    10    11    1
    11    11    12    1
    12    12    13   ar
    13    13    14   ar
    14    14    15   ar
    15    15    16   ar
    16    16    17   ar
    17    17    18   ar
    18    10    19    1
    19    19    20   ar
    20    20    21   ar
    21    21    22   ar
    22    22    23   ar
    23     5     1    1
    24    13     6   ar
    25    18    14   ar
    26    23    19   ar
    27    18     4   ar
    28    12     8   ar
    29     1    24    1
    30     1    25    1
    31     2    26    1
    32     3    27    1
    33     9    28    1
    34    11    29    1
    35    11    30    1
    36    15    31    1
    37    16    32    1
    38    17    33    1
    39    20    34    1
    40    21    35    1
    41    22    36    1
    42    23    37    1
