@<TRIPOS>MOLECULE
*****
 49 56 0 0 0
SMALL
GASTEIGER

@<TRIPOS>ATOM
      1 SI         -4.6840    2.3518   -2.0257 Si      1  UNL1        0.0000
      2 C          -6.2729    1.9782   -1.1130 C.2     1  UNL1        0.0000
      3 C          -6.1224    1.0344   -0.1664 C.2     1  UNL1        0.0000
      4 C          -4.7453    0.4952   -0.0445 C.ar    1  UNL1        0.0000
      5 C          -3.8415    1.0972   -0.9473 C.ar    1  UNL1        0.0000
      6 C          -2.4844    0.7481   -0.9661 C.ar    1  UNL1        0.0000
      7 S          -1.2705    1.2802   -2.0764 S.2     1  UNL1        0.0000
      8 C          -0.0023    0.5214   -1.2146 C.ar    1  UNL1        0.0000
      9 C           1.3895    0.5536   -1.5355 C.ar    1  UNL1        0.0000
     10 C           2.3744    0.0088   -0.6868 C.ar    1  UNL1        0.0000
     11 C           3.7878    0.0458   -0.9802 C.ar    1  UNL1        0.0000
     12 C           4.4355   -0.7648   -1.9506 C.ar    1  UNL1        0.0000
     13 C           5.8464   -0.7132   -2.2483 C.ar    1  UNL1        0.0000
     14 C           6.7635    0.1578   -1.6154 C.ar    1  UNL1        0.0000
     15 C           6.1071    0.9454   -0.6804 C.ar    1  UNL1        0.0000
     16 C           6.6592    1.9101    0.1185 C.ar    1  UNL1        0.0000
     17 O           5.6829    2.4702    0.8979 O.2     1  UNL1        0.0000
     18 C           4.5007    1.8534    0.5862 C.ar    1  UNL1        0.0000
     19 C           4.7145    0.9006   -0.3772 C.ar    1  UNL1        0.0000
     20 C           1.8109   -0.4994    0.4832 C.ar    1  UNL1        0.0000
     21 C           2.5113   -1.0092    1.5564 C.ar    1  UNL1        0.0000
     22 N           1.6054   -1.3025    2.5548 N.ar    1  UNL1        0.0000
     23 C           0.3277   -0.9966    2.1371 C.ar    1  UNL1        0.0000
     24 C           0.4486   -0.5768    0.8433 C.ar    1  UNL1        0.0000
     25 C          -0.5398   -0.1087   -0.1016 C.ar    1  UNL1        0.0000
     26 C          -1.9749   -0.1721   -0.0281 C.ar    1  UNL1        0.0000
     27 C          -2.9433   -0.9173    0.7564 C.ar    1  UNL1        0.0000
     28 C          -2.5643   -2.0879    1.4523 C.ar    1  UNL1        0.0000
     29 C          -3.4597   -2.7971    2.2543 C.ar    1  UNL1        0.0000
     30 C          -4.7729   -2.3704    2.3616 C.ar    1  UNL1        0.0000
     31 C          -5.2007   -1.2655    1.6266 C.ar    1  UNL1        0.0000
     32 C          -4.3184   -0.5440    0.7886 C.ar    1  UNL1        0.0000
     33 H          -4.2341    3.7457   -1.7843 H       1  UNL1        0.0000
     34 H          -4.7704    1.9517   -3.4526 H       1  UNL1        0.0000
     35 H          -7.1884    2.4941   -1.3584 H       1  UNL1        0.0000
     36 H          -6.9339    0.6932    0.4603 H       1  UNL1        0.0000
     37 H           1.7025    1.0517   -2.4529 H       1  UNL1        0.0000
     38 H           3.8319   -1.4828   -2.5091 H       1  UNL1        0.0000
     39 H           6.2256   -1.3920   -3.0137 H       1  UNL1        0.0000
     40 H           7.8180    0.1901   -1.8479 H       1  UNL1        0.0000
     41 H           7.6531    2.3102    0.2590 H       1  UNL1        0.0000
     42 H           3.6349    2.2043    1.1302 H       1  UNL1        0.0000
     43 H           3.5699   -1.1575    1.7260 H       1  UNL1        0.0000
     44 H           1.8489   -1.6490    3.4740 H       1  UNL1        0.0000
     45 H          -0.5039   -1.0900    2.8203 H       1  UNL1        0.0000
     46 H          -1.5664   -2.4998    1.3349 H       1  UNL1        0.0000
     47 H          -3.1291   -3.6887    2.7801 H       1  UNL1        0.0000
     48 H          -5.4766   -2.9153    2.9851 H       1  UNL1        0.0000
     49 H          -6.2499   -0.9924    1.6979 H       1  UNL1        0.0000
@<TRIPOS>BOND
     1     1     2    1
     2     2     3    2
     3     3     4    1
     4     4     5   ar
     5     5     6   ar
     6     6     7   ar
     7     7     8   ar
     8     8     9   ar
     9     9    10   ar
    10    10    11    1
    11    11    12   ar
    12    12    13   ar
    13    13    14   ar
    14    14    15   ar
    15    15    16   ar
    16    16    17   ar
    17    17    18   ar
    18    18    19   ar
    19    10    20   ar
    20    20    21   ar
    21    21    22   ar
    22    22    23   ar
    23    23    24   ar
    24    24    25   ar
    25    25    26   ar
    26    26    27   ar
    27    27    28   ar
    28    28    29   ar
    29    29    30   ar
    30    30    31   ar
    31    31    32   ar
    32     5     1    1
    33    26     6   ar
    34    32    27   ar
    35    32     4   ar
    36    25     8   ar
    37    19    11   ar
    38    24    20   ar
    39    19    15   ar
    40     1    33    1
    41     1    34    1
    42     2    35    1
    43     3    36    1
    44     9    37    1
    45    12    38    1
    46    13    39    1
    47    14    40    1
    48    16    41    1
    49    18    42    1
    50    21    43    1
    51    22    44    1
    52    23    45    1
    53    28    46    1
    54    29    47    1
    55    30    48    1
    56    31    49    1
