@<TRIPOS>MOLECULE
*****
 48 55 0 0 0
SMALL
GASTEIGER

@<TRIPOS>ATOM
      1 SI          5.0984    2.1505    2.2490 Si      1  UNL1        0.0000
      2 C           6.7105    1.5495    1.4449 C.2     1  UNL1        0.0000
      3 C           6.5143    0.6232    0.4870 C.2     1  UNL1        0.0000
      4 C           5.1021    0.3089    0.3106 C.ar    1  UNL1        0.0000
      5 C           4.1707    0.9879    1.1305 C.ar    1  UNL1        0.0000
      6 C           2.7677    0.7993    1.0386 C.ar    1  UNL1        0.0000
      7 S           1.5021    1.6384    1.8361 S.2     1  UNL1        0.0000
      8 C           0.2670    0.7352    1.0452 C.ar    1  UNL1        0.0000
      9 C          -1.1101    0.9956    1.1493 C.ar    1  UNL1        0.0000
     10 C          -2.0398    0.1490    0.5308 C.ar    1  UNL1        0.0000
     11 C          -3.4543    0.5061    0.6313 C.ar    1  UNL1        0.0000
     12 C          -4.2663    0.2117    1.7579 C.ar    1  UNL1        0.0000
     13 C          -5.6511    0.5629    1.8660 C.ar    1  UNL1        0.0000
     14 C          -6.3710    1.2473    0.8636 C.ar    1  UNL1        0.0000
     15 C          -5.5717    1.5398   -0.2413 C.ar    1  UNL1        0.0000
     16 C          -6.0523    2.2037   -1.3427 C.ar    1  UNL1        0.0000
     17 S          -4.8256    2.4113   -2.5289 S.2     1  UNL1        0.0000
     18 C          -3.6492    1.6107   -1.5626 C.ar    1  UNL1        0.0000
     19 C          -4.1766    1.1914   -0.3628 C.ar    1  UNL1        0.0000
     20 C          -1.5902   -1.0341   -0.0942 C.ar    1  UNL1        0.0000
     21 C          -2.4857   -1.9905   -0.6311 C.ar    1  UNL1        0.0000
     22 C          -2.0441   -3.2072   -1.1495 C.ar    1  UNL1        0.0000
     23 C          -0.6946   -3.5146   -1.1179 C.ar    1  UNL1        0.0000
     24 C           0.2148   -2.5831   -0.6168 C.ar    1  UNL1        0.0000
     25 C          -0.1932   -1.3084   -0.1610 C.ar    1  UNL1        0.0000
     26 C           0.7703   -0.3349    0.2971 C.ar    1  UNL1        0.0000
     27 C           2.1902   -0.1422    0.1805 C.ar    1  UNL1        0.0000
     28 C           3.1125   -0.7699   -0.7519 C.ar    1  UNL1        0.0000
     29 C           2.9239   -1.5181   -1.8754 C.ar    1  UNL1        0.0000
     30 O           4.1517   -1.8256   -2.4042 O.2     1  UNL1        0.0000
     31 C           5.0989   -1.2114   -1.6278 C.ar    1  UNL1        0.0000
     32 C           4.4923   -0.5126   -0.6129 C.ar    1  UNL1        0.0000
     33 H           4.8567    3.5844    1.9521 H       1  UNL1        0.0000
     34 H           5.0421    1.7687    3.6820 H       1  UNL1        0.0000
     35 H           7.6588    1.9530    1.7655 H       1  UNL1        0.0000
     36 H           7.2978    0.1582   -0.0939 H       1  UNL1        0.0000
     37 H          -1.4535    1.8672    1.7043 H       1  UNL1        0.0000
     38 H          -3.8141   -0.3196    2.5973 H       1  UNL1        0.0000
     39 H          -6.1775    0.2831    2.7795 H       1  UNL1        0.0000
     40 H          -7.4171    1.5038    0.9650 H       1  UNL1        0.0000
     41 H          -7.0484    2.5816   -1.5271 H       1  UNL1        0.0000
     42 H          -2.6418    1.4965   -1.9394 H       1  UNL1        0.0000
     43 H          -3.5592   -1.8080   -0.6283 H       1  UNL1        0.0000
     44 H          -2.7612   -3.9240   -1.5407 H       1  UNL1        0.0000
     45 H          -0.3456   -4.4825   -1.4684 H       1  UNL1        0.0000
     46 H           1.2507   -2.8972   -0.5336 H       1  UNL1        0.0000
     47 H           2.0806   -1.8879   -2.4394 H       1  UNL1        0.0000
     48 H           6.1200   -1.3475   -1.9547 H       1  UNL1        0.0000
@<TRIPOS>BOND
     1     1     2    1
     2     2     3    2
     3     3     4    1
     4     4     5   ar
     5     5     6   ar
     6     6     7   ar
     7     7     8   ar
     8     8     9   ar
     9     9    10   ar
    10    10    11    1
    11    11    12   ar
    12    12    13   ar
    13    13    14   ar
    14    14    15   ar
    15    15    16   ar
    16    16    17   ar
    17    17    18   ar
    18    18    19   ar
    19    10    20   ar
    20    20    21   ar
    21    21    22   ar
    22    22    23   ar
    23    23    24   ar
    24    24    25   ar
    25    25    26   ar
    26    26    27   ar
    27    27    28   ar
    28    28    29   ar
    29    29    30   ar
    30    30    31   ar
    31    31    32   ar
    32     5     1    1
    33    27     6   ar
    34    32    28   ar
    35    32     4   ar
    36    26     8   ar
    37    19    11   ar
    38    25    20   ar
    39    19    15   ar
    40     1    33    1
    41     1    34    1
    42     2    35    1
    43     3    36    1
    44     9    37    1
    45    12    38    1
    46    13    39    1
    47    14    40    1
    48    16    41    1
    49    18    42    1
    50    21    43    1
    51    22    44    1
    52    23    45    1
    53    24    46    1
    54    29    47    1
    55    31    48    1
