@<TRIPOS>MOLECULE
*****
 37 43 0 0 0
SMALL
GASTEIGER

@<TRIPOS>ATOM
      1 SI         -4.8012    0.2353    2.8160 Si      1  UNL1        0.0000
      2 C          -6.2296   -0.0103    1.5877 C.2     1  UNL1        0.0000
      3 C          -5.8184   -0.1966    0.3185 C.2     1  UNL1        0.0000
      4 C          -4.3652   -0.1634    0.2001 C.ar    1  UNL1        0.0000
      5 C          -3.6203    0.0524    1.3947 C.ar    1  UNL1        0.0000
      6 C          -2.2068    0.1071    1.4213 C.ar    1  UNL1        0.0000
      7 S          -1.0983    0.3531    2.7247 S.2     1  UNL1        0.0000
      8 C           0.2807    0.2305    1.6392 C.ar    1  UNL1        0.0000
      9 C           1.6938    0.3098    1.8221 C.ar    1  UNL1        0.0000
     10 C           2.3847    0.1463    0.6330 C.ar    1  UNL1        0.0000
     11 S           1.3105   -0.1018   -0.6926 S.2     1  UNL1        0.0000
     12 C          -0.0844    0.0113    0.3373 C.ar    1  UNL1        0.0000
     13 C          -1.4856   -0.0529    0.2483 C.ar    1  UNL1        0.0000
     14 C          -2.1686   -0.2736   -0.9913 C.ar    1  UNL1        0.0000
     15 C          -1.7656   -0.4627   -2.2766 C.ar    1  UNL1        0.0000
     16 O          -2.8896   -0.6254   -3.0500 O.2     1  UNL1        0.0000
     17 C          -3.9822   -0.5334   -2.2228 C.ar    1  UNL1        0.0000
     18 C          -3.5769   -0.3141   -0.9292 C.ar    1  UNL1        0.0000
     19 C           3.8261    0.1722    0.4714 C.ar    1  UNL1        0.0000
     20 S           4.9198    0.4263    1.8173 S.2     1  UNL1        0.0000
     21 C           6.3482    0.3223    0.8444 C.ar    1  UNL1        0.0000
     22 C           5.9549    0.1056   -0.4243 C.ar    1  UNL1        0.0000
     23 C           6.5028   -0.0807   -1.7149 C.ar    1  UNL1        0.0000
     24 C           5.4194   -0.2606   -2.5979 C.ar    1  UNL1        0.0000
     25 N           4.1993   -0.1979   -1.9304 N.ar    1  UNL1        0.0000
     26 C           4.5950    0.0226   -0.6389 C.ar    1  UNL1        0.0000
     27 H          -4.8270    1.6003    3.3976 H       1  UNL1        0.0000
     28 H          -4.7383   -0.8819    3.7908 H       1  UNL1        0.0000
     29 H          -7.2509    0.0084    1.9364 H       1  UNL1        0.0000
     30 H          -6.4732   -0.3538   -0.5268 H       1  UNL1        0.0000
     31 H           2.1563    0.4790    2.7868 H       1  UNL1        0.0000
     32 H          -0.8277   -0.5134   -2.8087 H       1  UNL1        0.0000
     33 H          -4.9391   -0.6453   -2.7128 H       1  UNL1        0.0000
     34 H           7.3367    0.4254    1.2678 H       1  UNL1        0.0000
     35 H           7.5474   -0.0883   -1.9968 H       1  UNL1        0.0000
     36 H           5.4228   -0.4312   -3.6669 H       1  UNL1        0.0000
     37 H           3.2503   -0.2869   -2.2745 H       1  UNL1        0.0000
@<TRIPOS>BOND
     1     1     2    1
     2     2     3    2
     3     3     4    1
     4     4     5   ar
     5     5     6   ar
     6     6     7   ar
     7     7     8   ar
     8     8     9   ar
     9     9    10   ar
    10    10    11   ar
    11    11    12   ar
    12    12    13   ar
    13    13    14   ar
    14    14    15   ar
    15    15    16   ar
    16    16    17   ar
    17    17    18   ar
    18    10    19    1
    19    19    20   ar
    20    20    21   ar
    21    21    22   ar
    22    22    23   ar
    23    23    24   ar
    24    24    25   ar
    25    25    26   ar
    26     5     1    1
    27    13     6   ar
    28    18    14   ar
    29    26    19   ar
    30    18     4   ar
    31    26    22   ar
    32    12     8   ar
    33     1    27    1
    34     1    28    1
    35     2    29    1
    36     3    30    1
    37     9    31    1
    38    15    32    1
    39    17    33    1
    40    21    34    1
    41    23    35    1
    42    24    36    1
    43    25    37    1
