@<TRIPOS>MOLECULE
*****
 45 52 0 0 0
SMALL
GASTEIGER

@<TRIPOS>ATOM
      1 SI         -7.1228   -0.8450   -0.8879 Si      1  UNL1        0.0000
      2 C          -5.6507   -1.5214   -1.9034 C.2     1  UNL1        0.0000
      3 C          -4.4781   -0.9988   -1.4815 C.2     1  UNL1        0.0000
      4 C          -4.5824   -0.0751   -0.3874 C.ar    1  UNL1        0.0000
      5 C          -5.8921    0.1775    0.1028 C.ar    1  UNL1        0.0000
      6 C          -5.9613    1.0676    1.1277 C.ar    1  UNL1        0.0000
      7 S          -4.3755    1.6223    1.5125 S.2     1  UNL1        0.0000
      8 C          -3.6161    0.6377    0.2893 C.ar    1  UNL1        0.0000
      9 C          -2.2119    0.6684    0.1380 C.2     1  UNL1        0.0000
     10 C          -1.5294    1.7029   -0.3855 C.2     1  UNL1        0.0000
     11 C          -0.0931    1.4511   -0.4165 C.ar    1  UNL1        0.0000
     12 C           0.4165    0.2041    0.0858 C.ar    1  UNL1        0.0000
     13 SI         -1.1197   -0.7607    0.6671 Si      1  UNL1        0.0000
     14 C           1.8335   -0.1614    0.1050 C.ar    1  UNL1        0.0000
     15 C           2.4848   -1.3536    0.5698 C.ar    1  UNL1        0.0000
     16 C           1.9107   -2.4768    1.1310 C.ar    1  UNL1        0.0000
     17 N           2.9117   -3.3906    1.4369 N.ar    1  UNL1        0.0000
     18 C           4.1418   -2.8863    1.0845 C.ar    1  UNL1        0.0000
     19 C           3.8657   -1.6593    0.5649 C.ar    1  UNL1        0.0000
     20 C           4.7693   -0.7091    0.0491 C.ar    1  UNL1        0.0000
     21 C           6.1518   -0.7137   -0.0899 C.ar    1  UNL1        0.0000
     22 C           6.4206    0.5133   -0.6635 C.ar    1  UNL1        0.0000
     23 O           5.2745    1.2328   -0.8670 O.2     1  UNL1        0.0000
     24 C           4.2268    0.4651   -0.4180 C.ar    1  UNL1        0.0000
     25 C           2.8479    0.7652   -0.4105 C.ar    1  UNL1        0.0000
     26 C           2.2966    1.9666   -0.8882 C.ar    1  UNL1        0.0000
     27 C           2.9334    3.0526   -1.4356 C.ar    1  UNL1        0.0000
     28 O           2.0187    4.0137   -1.7698 O.2     1  UNL1        0.0000
     29 C           0.7818    3.5393   -1.4326 C.ar    1  UNL1        0.0000
     30 C           0.9044    2.2883   -0.8894 C.ar    1  UNL1        0.0000
     31 H          -8.0335   -0.0412   -1.7404 H       1  UNL1        0.0000
     32 H          -7.7721   -1.9293   -0.1098 H       1  UNL1        0.0000
     33 H          -5.8073   -2.2235   -2.7062 H       1  UNL1        0.0000
     34 H          -3.5262   -1.2462   -1.9374 H       1  UNL1        0.0000
     35 H          -6.8208    1.4342    1.6723 H       1  UNL1        0.0000
     36 H          -1.9694    2.6211   -0.7492 H       1  UNL1        0.0000
     37 H          -1.1111   -0.9886    2.1362 H       1  UNL1        0.0000
     38 H          -1.3387   -1.9863   -0.1473 H       1  UNL1        0.0000
     39 H           0.8950   -2.7543    1.3612 H       1  UNL1        0.0000
     40 H           2.7540   -4.2965    1.8598 H       1  UNL1        0.0000
     41 H           5.0538   -3.4452    1.2412 H       1  UNL1        0.0000
     42 H           6.8689   -1.4753    0.1763 H       1  UNL1        0.0000
     43 H           7.3310    1.0060   -0.9757 H       1  UNL1        0.0000
     44 H           3.9623    3.3037   -1.6518 H       1  UNL1        0.0000
     45 H          -0.0432    4.2045   -1.6434 H       1  UNL1        0.0000
@<TRIPOS>BOND
     1     1     2    1
     2     2     3    2
     3     3     4    1
     4     4     5   ar
     5     5     6   ar
     6     6     7   ar
     7     7     8   ar
     8     8     9    1
     9     9    10    2
    10    10    11    1
    11    11    12   ar
    12    12    13    1
    13    12    14   ar
    14    14    15   ar
    15    15    16   ar
    16    16    17   ar
    17    17    18   ar
    18    18    19   ar
    19    19    20   ar
    20    20    21   ar
    21    21    22   ar
    22    22    23   ar
    23    23    24   ar
    24    24    25   ar
    25    25    26   ar
    26    26    27   ar
    27    27    28   ar
    28    28    29   ar
    29    29    30   ar
    30     5     1    1
    31    13     9    1
    32    25    14   ar
    33    30    26   ar
    34     8     4   ar
    35    30    11   ar
    36    19    15   ar
    37    24    20   ar
    38     1    31    1
    39     1    32    1
    40     2    33    1
    41     3    34    1
    42     6    35    1
    43    10    36    1
    44    13    37    1
    45    13    38    1
    46    16    39    1
    47    17    40    1
    48    18    41    1
    49    21    42    1
    50    22    43    1
    51    27    44    1
    52    29    45    1
