@<TRIPOS>MOLECULE
*****
 48 55 0 0 0
SMALL
GASTEIGER

@<TRIPOS>ATOM
      1 SI          2.2616   -1.1718    0.0015 Si      1  UNL1        0.0000
      2 C           3.3738    0.3361    0.0444 C.2     1  UNL1        0.0000
      3 C           2.6272    1.4575    0.0381 C.2     1  UNL1        0.0000
      4 C           1.1732    1.2323    0.0002 C.ar    1  UNL1        0.0000
      5 C           0.2598    2.2435   -0.0097 C.ar    1  UNL1        0.0000
      6 N          -1.0582    2.0081   -0.0422 N.ar    1  UNL1        0.0000
      7 C          -1.5590    0.7476   -0.0677 C.ar    1  UNL1        0.0000
      8 C          -0.7275   -0.4073   -0.0636 C.ar    1  UNL1        0.0000
      9 C           0.6875   -0.0998   -0.0266 C.ar    1  UNL1        0.0000
     10 C          -1.3808   -1.7229   -0.0954 C.ar    1  UNL1        0.0000
     11 C          -0.6720   -2.9582   -0.1002 C.ar    1  UNL1        0.0000
     12 C          -1.2681   -4.2206   -0.1279 C.ar    1  UNL1        0.0000
     13 C          -2.6349   -4.3134   -0.1537 C.ar    1  UNL1        0.0000
     14 C          -3.3817   -3.1409   -0.1525 C.ar    1  UNL1        0.0000
     15 C          -2.8089   -1.8348   -0.1250 C.ar    1  UNL1        0.0000
     16 C          -3.6348   -0.6688   -0.1273 C.ar    1  UNL1        0.0000
     17 C          -5.1083   -0.7406   -0.1580 C.ar    1  UNL1        0.0000
     18 C          -6.0302    0.3293   -0.1642 C.ar    1  UNL1        0.0000
     19 C          -5.3449    1.5192   -0.1365 C.ar    1  UNL1        0.0000
     20 C          -5.9446    2.7521   -0.1344 C.ar    1  UNL1        0.0000
     21 N          -4.9316    3.6783   -0.1030 N.ar    1  UNL1        0.0000
     22 C          -3.7117    3.0392   -0.0856 C.ar    1  UNL1        0.0000
     23 C          -3.9288    1.6782   -0.1059 C.ar    1  UNL1        0.0000
     24 C          -2.9706    0.6050   -0.0988 C.ar    1  UNL1        0.0000
     25 C           4.8265    0.1794    0.0784 C.ar    1  UNL1        0.0000
     26 N           5.3561   -1.0896    0.0988 N.ar    1  UNL1        0.0000
     27 C           6.7068   -1.3139    0.1315 C.ar    1  UNL1        0.0000
     28 C           7.7160   -0.3615    0.1486 C.ar    1  UNL1        0.0000
     29 C           7.2348    0.9593    0.1284 C.ar    1  UNL1        0.0000
     30 N           8.0068    2.0575    0.1385 N.ar    1  UNL1        0.0000
     31 S           6.9787    3.3568    0.1052 S.2     1  UNL1        0.0000
     32 N           5.5121    2.5883    0.0768 N.ar    1  UNL1        0.0000
     33 C           5.7540    1.2631    0.0922 C.ar    1  UNL1        0.0000
     34 H           2.3168   -1.9837    1.2456 H       1  UNL1        0.0000
     35 H           2.3802   -1.9566   -1.2557 H       1  UNL1        0.0000
     36 H           3.0104    2.4695    0.0590 H       1  UNL1        0.0000
     37 H           0.5468    3.2891    0.0090 H       1  UNL1        0.0000
     38 H           0.4039   -2.9965   -0.0835 H       1  UNL1        0.0000
     39 H          -0.6532   -5.1165   -0.1293 H       1  UNL1        0.0000
     40 H          -3.1268   -5.2812   -0.1756 H       1  UNL1        0.0000
     41 H          -4.4560   -3.2915   -0.1746 H       1  UNL1        0.0000
     42 H          -5.5924   -1.7150   -0.1795 H       1  UNL1        0.0000
     43 H          -7.1020    0.2022   -0.1875 H       1  UNL1        0.0000
     44 H          -6.9807    3.0608   -0.1519 H       1  UNL1        0.0000
     45 H          -5.0566    4.6819   -0.0938 H       1  UNL1        0.0000
     46 H          -2.8075    3.6302   -0.0604 H       1  UNL1        0.0000
     47 H           6.9713   -2.3715    0.1447 H       1  UNL1        0.0000
     48 H           8.7675   -0.6077    0.1746 H       1  UNL1        0.0000
@<TRIPOS>BOND
     1     1     2    1
     2     2     3    2
     3     3     4    1
     4     4     5   ar
     5     5     6   ar
     6     6     7   ar
     7     7     8   ar
     8     8     9   ar
     9     8    10   ar
    10    10    11   ar
    11    11    12   ar
    12    12    13   ar
    13    13    14   ar
    14    14    15   ar
    15    15    16   ar
    16    16    17   ar
    17    17    18   ar
    18    18    19   ar
    19    19    20   ar
    20    20    21   ar
    21    21    22   ar
    22    22    23   ar
    23    23    24   ar
    24     2    25    1
    25    25    26   ar
    26    26    27   ar
    27    27    28   ar
    28    28    29   ar
    29    29    30   ar
    30    30    31   ar
    31    31    32   ar
    32    32    33   ar
    33     9     1    1
    34    15    10   ar
    35    24    16   ar
    36    33    25   ar
    37     9     4   ar
    38    23    19   ar
    39    33    29   ar
    40    24     7   ar
    41     1    34    1
    42     1    35    1
    43     3    36    1
    44     5    37    1
    45    11    38    1
    46    12    39    1
    47    13    40    1
    48    14    41    1
    49    17    42    1
    50    18    43    1
    51    20    44    1
    52    21    45    1
    53    22    46    1
    54    27    47    1
    55    28    48    1
