@<TRIPOS>MOLECULE
*****
 36 42 0 0 0
SMALL
GASTEIGER

@<TRIPOS>ATOM
      1 SI          6.7381    0.9254   -0.2242 Si      1  UNL1        0.0000
      2 C           5.4603    1.5852    1.0359 C.2     1  UNL1        0.0000
      3 C           4.2164    1.1339    0.7617 C.2     1  UNL1        0.0000
      4 C           4.1199    0.2734   -0.3836 C.ar    1  UNL1        0.0000
      5 C           5.3304    0.0172   -1.0827 C.ar    1  UNL1        0.0000
      6 C           5.2074   -0.7843   -2.1735 C.ar    1  UNL1        0.0000
      7 S           3.5580   -1.2459   -2.3608 S.2     1  UNL1        0.0000
      8 C           3.0359   -0.3610   -0.9513 C.ar    1  UNL1        0.0000
      9 C           1.6770   -0.3939   -0.5713 C.2     1  UNL1        0.0000
     10 C           0.6543    0.1574   -1.2640 C.2     1  UNL1        0.0000
     11 C          -0.5917   -0.0692   -0.6091 C.ar    1  UNL1        0.0000
     12 O          -1.8484    0.3214   -0.9697 O.2     1  UNL1        0.0000
     13 C          -2.6715   -0.1642    0.0149 C.ar    1  UNL1        0.0000
     14 C          -1.9573   -0.8382    0.9666 C.ar    1  UNL1        0.0000
     15 S          -2.9894   -1.4602    2.2238 S.2     1  UNL1        0.0000
     16 C          -4.4028   -0.7961    1.4438 C.ar    1  UNL1        0.0000
     17 C          -5.7544   -0.8592    1.8492 C.ar    1  UNL1        0.0000
     18 C          -6.7607   -0.2501    1.0697 C.ar    1  UNL1        0.0000
     19 C          -6.3595    0.4149   -0.1151 C.ar    1  UNL1        0.0000
     20 N          -7.1731    1.0504   -0.9801 N.ar    1  UNL1        0.0000
     21 S          -6.1947    1.6580   -2.2000 S.2     1  UNL1        0.0000
     22 N          -4.6889    1.1389   -1.6793 N.ar    1  UNL1        0.0000
     23 C          -4.9750    0.4972   -0.5594 C.ar    1  UNL1        0.0000
     24 C          -4.0316   -0.1452    0.2881 C.ar    1  UNL1        0.0000
     25 C          -0.6254   -0.7802    0.5726 C.ar    1  UNL1        0.0000
     26 SI          1.0859   -1.2853    1.0231 Si      1  UNL1        0.0000
     27 H           7.7196    0.0300    0.4370 H       1  UNL1        0.0000
     28 H           7.3215    2.0332   -1.0206 H       1  UNL1        0.0000
     29 H           5.7606    2.2420    1.8363 H       1  UNL1        0.0000
     30 H           3.3501    1.4087    1.3523 H       1  UNL1        0.0000
     31 H           5.9587   -1.1262   -2.8723 H       1  UNL1        0.0000
     32 H           0.7331    0.7040   -2.1940 H       1  UNL1        0.0000
     33 H          -6.0256   -1.3791    2.7659 H       1  UNL1        0.0000
     34 H          -7.8044   -0.2863    1.3618 H       1  UNL1        0.0000
     35 H           1.6056   -0.6158    2.2445 H       1  UNL1        0.0000
     36 H           1.3219   -2.7506    0.9637 H       1  UNL1        0.0000
@<TRIPOS>BOND
     1     1     2    1
     2     2     3    2
     3     3     4    1
     4     4     5   ar
     5     5     6   ar
     6     6     7   ar
     7     7     8   ar
     8     8     9    1
     9     9    10    2
    10    10    11    1
    11    11    12   ar
    12    12    13   ar
    13    13    14   ar
    14    14    15   ar
    15    15    16   ar
    16    16    17   ar
    17    17    18   ar
    18    18    19   ar
    19    19    20   ar
    20    20    21   ar
    21    21    22   ar
    22    22    23   ar
    23    23    24   ar
    24    14    25   ar
    25    25    26    1
    26     5     1    1
    27    26     9    1
    28     8     4   ar
    29    25    11   ar
    30    24    13   ar
    31    24    16   ar
    32    23    19   ar
    33     1    27    1
    34     1    28    1
    35     2    29    1
    36     3    30    1
    37     6    31    1
    38    10    32    1
    39    17    33    1
    40    18    34    1
    41    26    35    1
    42    26    36    1
