@<TRIPOS>MOLECULE
*****
 47 54 0 0 0
SMALL
GASTEIGER

@<TRIPOS>ATOM
      1 SI          7.7379    0.7930   -0.5221 Si      1  UNL1        0.0000
      2 C           6.6813   -0.7010   -1.0694 C.2     1  UNL1        0.0000
      3 C           5.3774   -0.5287   -0.7592 C.2     1  UNL1        0.0000
      4 C           5.0634    0.7052   -0.0941 C.ar    1  UNL1        0.0000
      5 C           6.1600    1.5869    0.1298 C.ar    1  UNL1        0.0000
      6 C           5.8433    2.7665    0.7274 C.ar    1  UNL1        0.0000
      7 S           4.1480    2.8149    1.0286 S.2     1  UNL1        0.0000
      8 C           3.8766    1.2298    0.3691 C.ar    1  UNL1        0.0000
      9 C           2.5507    0.6727    0.3751 C.ar    1  UNL1        0.0000
     10 C           2.1550   -0.6526    0.4540 C.ar    1  UNL1        0.0000
     11 C           0.7300   -0.6885    0.4361 C.ar    1  UNL1        0.0000
     12 C           0.3336    0.6325    0.3456 C.ar    1  UNL1        0.0000
     13 O           1.4218    1.4507    0.3282 O.2     1  UNL1        0.0000
     14 C          -1.0075    1.0394    0.2747 C.ar    1  UNL1        0.0000
     15 C          -1.2993    2.4008    0.2728 C.ar    1  UNL1        0.0000
     16 N          -2.5482    2.9036    0.2130 N.ar    1  UNL1        0.0000
     17 C          -3.5622    2.0634    0.0085 C.ar    1  UNL1        0.0000
     18 C          -4.8281    2.6880   -0.1210 C.ar    1  UNL1        0.0000
     19 C          -6.0403    2.0529   -0.4533 C.ar    1  UNL1        0.0000
     20 C          -5.8252    0.7143   -0.7342 C.ar    1  UNL1        0.0000
     21 C          -6.8312   -0.0816   -1.2247 C.ar    1  UNL1        0.0000
     22 S          -6.2364   -1.6321   -1.6470 S.2     1  UNL1        0.0000
     23 C          -4.6356   -1.2142   -1.1799 C.ar    1  UNL1        0.0000
     24 C          -4.5617    0.0293   -0.5909 C.ar    1  UNL1        0.0000
     25 C          -3.3537    0.6408   -0.0993 C.ar    1  UNL1        0.0000
     26 C          -2.0355    0.0815    0.2148 C.ar    1  UNL1        0.0000
     27 C          -1.6532   -1.2915    0.5064 C.ar    1  UNL1        0.0000
     28 C          -2.5669   -2.3123    0.8560 C.ar    1  UNL1        0.0000
     29 C          -2.1780   -3.6372    1.0916 C.ar    1  UNL1        0.0000
     30 C          -0.8399   -3.9930    1.0247 C.ar    1  UNL1        0.0000
     31 C           0.1140   -3.0139    0.7742 C.ar    1  UNL1        0.0000
     32 C          -0.2777   -1.6750    0.5537 C.ar    1  UNL1        0.0000
     33 H           8.3263    1.4861   -1.6945 H       1  UNL1        0.0000
     34 H           8.6998    0.4012    0.5377 H       1  UNL1        0.0000
     35 H           7.1315   -1.5399   -1.5754 H       1  UNL1        0.0000
     36 H           4.6215   -1.2607   -1.0155 H       1  UNL1        0.0000
     37 H           6.4765    3.6002    0.9992 H       1  UNL1        0.0000
     38 H           2.8187   -1.4992    0.5493 H       1  UNL1        0.0000
     39 H          -0.5153    3.1513    0.3500 H       1  UNL1        0.0000
     40 H          -4.8591    3.7699    0.0285 H       1  UNL1        0.0000
     41 H          -6.9747    2.5873   -0.5576 H       1  UNL1        0.0000
     42 H          -7.8688    0.1663   -1.4030 H       1  UNL1        0.0000
     43 H          -3.8483   -1.9253   -1.3822 H       1  UNL1        0.0000
     44 H          -3.6189   -2.0799    1.0039 H       1  UNL1        0.0000
     45 H          -2.9283   -4.3830    1.3438 H       1  UNL1        0.0000
     46 H          -0.5362   -5.0201    1.2082 H       1  UNL1        0.0000
     47 H           1.1630   -3.2987    0.7822 H       1  UNL1        0.0000
@<TRIPOS>BOND
     1     1     2    1
     2     2     3    2
     3     3     4    1
     4     4     5   ar
     5     5     6   ar
     6     6     7   ar
     7     7     8   ar
     8     8     9    1
     9     9    10   ar
    10    10    11   ar
    11    11    12   ar
    12    12    13   ar
    13    12    14   ar
    14    14    15   ar
    15    15    16   ar
    16    16    17   ar
    17    17    18   ar
    18    18    19   ar
    19    19    20   ar
    20    20    21   ar
    21    21    22   ar
    22    22    23   ar
    23    23    24   ar
    24    24    25   ar
    25    25    26   ar
    26    26    27   ar
    27    27    28   ar
    28    28    29   ar
    29    29    30   ar
    30    30    31   ar
    31    31    32   ar
    32     5     1    1
    33    13     9   ar
    34    26    14   ar
    35    32    27   ar
    36     8     4   ar
    37    32    11   ar
    38    25    17   ar
    39    24    20   ar
    40     1    33    1
    41     1    34    1
    42     2    35    1
    43     3    36    1
    44     6    37    1
    45    10    38    1
    46    15    39    1
    47    18    40    1
    48    19    41    1
    49    21    42    1
    50    23    43    1
    51    28    44    1
    52    29    45    1
    53    30    46    1
    54    31    47    1
