@<TRIPOS>MOLECULE
*****
 49 56 0 0 0
SMALL
GASTEIGER

@<TRIPOS>ATOM
      1 SI         -7.2559   -0.3945   -0.5931 Si      1  UNL1        0.0000
      2 C          -5.8738   -0.9918   -1.7732 C.2     1  UNL1        0.0000
      3 C          -4.6493   -0.6582   -1.3092 C.2     1  UNL1        0.0000
      4 C          -4.6463    0.0571   -0.0656 C.ar    1  UNL1        0.0000
      5 C          -5.9147    0.3153    0.5212 C.ar    1  UNL1        0.0000
      6 C          -5.8754    0.9830    1.7056 C.ar    1  UNL1        0.0000
      7 S          -4.2333    1.3082    2.1250 S.2     1  UNL1        0.0000
      8 C          -3.6118    0.5503    0.6944 C.ar    1  UNL1        0.0000
      9 C          -2.1804    0.5249    0.4715 C.ar    1  UNL1        0.0000
     10 C          -1.2319   -0.1135    1.3006 C.ar    1  UNL1        0.0000
     11 C           0.2248   -0.1671    1.1165 C.ar    1  UNL1        0.0000
     12 C           1.0791   -0.7787    2.0934 C.ar    1  UNL1        0.0000
     13 C           0.5765   -1.3175    3.3150 C.ar    1  UNL1        0.0000
     14 C           1.3819   -1.8951    4.2956 C.ar    1  UNL1        0.0000
     15 C           2.7402   -1.9554    4.0962 C.ar    1  UNL1        0.0000
     16 C           3.2748   -1.4403    2.9170 C.ar    1  UNL1        0.0000
     17 C           2.4889   -0.8461    1.8865 C.ar    1  UNL1        0.0000
     18 C           3.0764   -0.3520    0.6714 C.ar    1  UNL1        0.0000
     19 C           4.4791   -0.4446    0.4149 C.ar    1  UNL1        0.0000
     20 C           5.0611   -0.0377   -0.7979 C.ar    1  UNL1        0.0000
     21 C           6.3816   -0.0248   -1.3222 C.ar    1  UNL1        0.0000
     22 C           6.3130    0.4636   -2.6074 C.ar    1  UNL1        0.0000
     23 N           4.9983    0.7403   -2.8780 N.ar    1  UNL1        0.0000
     24 C           4.2222    0.4543   -1.7787 C.ar    1  UNL1        0.0000
     25 C           2.8453    0.5801   -1.5734 C.ar    1  UNL1        0.0000
     26 C           2.2544    0.2330   -0.3258 C.ar    1  UNL1        0.0000
     27 C           0.8454    0.4062   -0.0558 C.ar    1  UNL1        0.0000
     28 C          -0.1324    1.1299   -0.8281 C.ar    1  UNL1        0.0000
     29 C           0.0494    2.0096   -1.8718 C.ar    1  UNL1        0.0000
     30 O          -1.1458    2.5017   -2.3120 O.2     1  UNL1        0.0000
     31 C          -2.1137    1.9834   -1.5095 C.ar    1  UNL1        0.0000
     32 C          -1.5389    1.1665   -0.5704 C.ar    1  UNL1        0.0000
     33 H          -8.1045    0.6329   -1.2463 H       1  UNL1        0.0000
     34 H          -7.9865   -1.5439   -0.0038 H       1  UNL1        0.0000
     35 H          -6.1112   -1.5279   -2.6779 H       1  UNL1        0.0000
     36 H          -3.7319   -0.9120   -1.8288 H       1  UNL1        0.0000
     37 H          -6.6827    1.2990    2.3523 H       1  UNL1        0.0000
     38 H          -1.6708   -0.6167    2.1605 H       1  UNL1        0.0000
     39 H          -0.4817   -1.2911    3.5552 H       1  UNL1        0.0000
     40 H           0.9394   -2.2859    5.2076 H       1  UNL1        0.0000
     41 H           3.3903   -2.3974    4.8458 H       1  UNL1        0.0000
     42 H           4.3537   -1.5230    2.8275 H       1  UNL1        0.0000
     43 H           5.1658   -0.8542    1.1450 H       1  UNL1        0.0000
     44 H           7.2823   -0.3464   -0.8161 H       1  UNL1        0.0000
     45 H           7.0805    0.6316   -3.3509 H       1  UNL1        0.0000
     46 H           4.6476    1.1104   -3.7507 H       1  UNL1        0.0000
     47 H           2.2443    0.8969   -2.4129 H       1  UNL1        0.0000
     48 H           0.8978    2.4222   -2.3947 H       1  UNL1        0.0000
     49 H          -3.1215    2.3150   -1.7184 H       1  UNL1        0.0000
@<TRIPOS>BOND
     1     1     2    1
     2     2     3    2
     3     3     4    1
     4     4     5   ar
     5     5     6   ar
     6     6     7   ar
     7     7     8   ar
     8     8     9    1
     9     9    10   ar
    10    10    11   ar
    11    11    12   ar
    12    12    13   ar
    13    13    14   ar
    14    14    15   ar
    15    15    16   ar
    16    16    17   ar
    17    17    18   ar
    18    18    19   ar
    19    19    20   ar
    20    20    21   ar
    21    21    22   ar
    22    22    23   ar
    23    23    24   ar
    24    24    25   ar
    25    25    26   ar
    26    26    27   ar
    27    27    28   ar
    28    28    29   ar
    29    29    30   ar
    30    30    31   ar
    31    31    32   ar
    32     5     1    1
    33    32     9   ar
    34     8     4   ar
    35    27    11   ar
    36    32    28   ar
    37    17    12   ar
    38    26    18   ar
    39    24    20   ar
    40     1    33    1
    41     1    34    1
    42     2    35    1
    43     3    36    1
    44     6    37    1
    45    10    38    1
    46    13    39    1
    47    14    40    1
    48    15    41    1
    49    16    42    1
    50    19    43    1
    51    21    44    1
    52    22    45    1
    53    23    46    1
    54    25    47    1
    55    29    48    1
    56    31    49    1
