@<TRIPOS>MOLECULE
*****
 44 50 0 0 0
SMALL
GASTEIGER

@<TRIPOS>ATOM
      1 SI          6.5362    0.7585    0.2037 Si      1  UNL1        0.0000
      2 C           5.2830    1.0732    1.6158 C.2     1  UNL1        0.0000
      3 C           4.0455    0.6447    1.2826 C.2     1  UNL1        0.0000
      4 C           3.9390    0.0597   -0.0223 C.ar    1  UNL1        0.0000
      5 C           5.1293    0.0064   -0.7962 C.ar    1  UNL1        0.0000
      6 C           4.9883   -0.5490   -2.0303 C.ar    1  UNL1        0.0000
      7 S           3.3439   -1.0229   -2.2608 S.2     1  UNL1        0.0000
      8 C           2.8638   -0.4777   -0.6884 C.ar    1  UNL1        0.0000
      9 C           1.4801   -0.6304   -0.2816 C.ar    1  UNL1        0.0000
     10 C           0.4367    0.2066   -0.7309 C.ar    1  UNL1        0.0000
     11 C          -0.9700    0.1415   -0.3557 C.ar    1  UNL1        0.0000
     12 C          -1.9146    1.1210   -0.8210 C.ar    1  UNL1        0.0000
     13 C          -1.5261    2.2473   -1.6045 C.ar    1  UNL1        0.0000
     14 C          -2.4161    3.2268   -2.0446 C.ar    1  UNL1        0.0000
     15 C          -3.7467    3.1237   -1.7128 C.ar    1  UNL1        0.0000
     16 C          -4.1723    2.0390   -0.9497 C.ar    1  UNL1        0.0000
     17 C          -3.2970    1.0151   -0.4867 C.ar    1  UNL1        0.0000
     18 C          -3.7766   -0.1073    0.2648 C.ar    1  UNL1        0.0000
     19 C          -5.1503   -0.3053    0.5665 C.ar    1  UNL1        0.0000
     20 C          -5.5834   -1.4443    1.2206 C.ar    1  UNL1        0.0000
     21 N          -4.7603   -2.4297    1.5803 N.ar    1  UNL1        0.0000
     22 C          -3.4501   -2.2320    1.3033 C.ar    1  UNL1        0.0000
     23 C          -2.8667   -1.0883    0.7168 C.ar    1  UNL1        0.0000
     24 C          -1.4475   -0.9105    0.5041 C.ar    1  UNL1        0.0000
     25 C          -0.3541   -1.6842    1.0598 C.ar    1  UNL1        0.0000
     26 C          -0.4457   -2.5453    2.1337 C.ar    1  UNL1        0.0000
     27 S           1.0379   -3.3276    2.5012 S.2     1  UNL1        0.0000
     28 C           1.8705   -2.4281    1.3116 C.ar    1  UNL1        0.0000
     29 C           1.0329   -1.5484    0.6627 C.ar    1  UNL1        0.0000
     30 H           7.5713   -0.2198    0.6203 H       1  UNL1        0.0000
     31 H           7.0508    2.0377   -0.3450 H       1  UNL1        0.0000
     32 H           5.5925    1.5399    2.5370 H       1  UNL1        0.0000
     33 H           3.1909    0.7318    1.9446 H       1  UNL1        0.0000
     34 H           5.7221   -0.7086   -2.8087 H       1  UNL1        0.0000
     35 H           0.7614    0.9715   -1.4346 H       1  UNL1        0.0000
     36 H          -0.4915    2.4106   -1.8904 H       1  UNL1        0.0000
     37 H          -2.0584    4.0645   -2.6371 H       1  UNL1        0.0000
     38 H          -4.4577    3.8766   -2.0413 H       1  UNL1        0.0000
     39 H          -5.2344    2.0180   -0.7244 H       1  UNL1        0.0000
     40 H          -5.9154    0.4081    0.2857 H       1  UNL1        0.0000
     41 H          -6.6332   -1.5979    1.4509 H       1  UNL1        0.0000
     42 H          -2.8622   -3.1131    1.5336 H       1  UNL1        0.0000
     43 H          -1.2810   -2.7765    2.7752 H       1  UNL1        0.0000
     44 H           2.9348   -2.5752    1.1842 H       1  UNL1        0.0000
@<TRIPOS>BOND
     1     1     2    1
     2     2     3    2
     3     3     4    1
     4     4     5   ar
     5     5     6   ar
     6     6     7   ar
     7     7     8   ar
     8     8     9    1
     9     9    10   ar
    10    10    11   ar
    11    11    12   ar
    12    12    13   ar
    13    13    14   ar
    14    14    15   ar
    15    15    16   ar
    16    16    17   ar
    17    17    18   ar
    18    18    19   ar
    19    19    20   ar
    20    20    21   ar
    21    21    22   ar
    22    22    23   ar
    23    23    24   ar
    24    24    25   ar
    25    25    26   ar
    26    26    27   ar
    27    27    28   ar
    28    28    29   ar
    29     5     1    1
    30    29     9   ar
    31     8     4   ar
    32    24    11   ar
    33    29    25   ar
    34    17    12   ar
    35    23    18   ar
    36     1    30    1
    37     1    31    1
    38     2    32    1
    39     3    33    1
    40     6    34    1
    41    10    35    1
    42    13    36    1
    43    14    37    1
    44    15    38    1
    45    16    39    1
    46    19    40    1
    47    20    41    1
    48    22    42    1
    49    26    43    1
    50    28    44    1
