@<TRIPOS>MOLECULE
*****
 46 53 0 0 0
SMALL
GASTEIGER

@<TRIPOS>ATOM
      1 SI         -7.0567   -0.4734   -0.3398 Si      1  UNL1        0.0000
      2 C          -5.7534   -1.8373   -0.0220 C.2     1  UNL1        0.0000
      3 C          -4.5058   -1.3215    0.0395 C.2     1  UNL1        0.0000
      4 C          -4.4278    0.0997   -0.1390 C.ar    1  UNL1        0.0000
      5 C          -5.6549    0.7811   -0.3622 C.ar    1  UNL1        0.0000
      6 C          -5.5416    2.1252   -0.5388 C.ar    1  UNL1        0.0000
      7 S          -3.8794    2.5789   -0.4334 S.2     1  UNL1        0.0000
      8 C          -3.3499    0.9535   -0.1425 C.ar    1  UNL1        0.0000
      9 C          -1.9358    0.6917    0.0453 C.ar    1  UNL1        0.0000
     10 C          -0.9582    0.8601   -0.9440 C.ar    1  UNL1        0.0000
     11 C           0.4494    0.5722   -0.7316 C.ar    1  UNL1        0.0000
     12 C           1.4130    0.7768   -1.7389 C.ar    1  UNL1        0.0000
     13 C           1.2124    1.2655   -3.0076 C.ar    1  UNL1        0.0000
     14 O           2.3974    1.3225   -3.6811 O.2     1  UNL1        0.0000
     15 C           3.3648    0.8663   -2.8342 C.ar    1  UNL1        0.0000
     16 C           2.8082    0.5200   -1.6276 C.ar    1  UNL1        0.0000
     17 C           3.4481    0.0004   -0.5017 C.ar    1  UNL1        0.0000
     18 C           4.8181   -0.2705   -0.4013 C.ar    1  UNL1        0.0000
     19 O           5.7800   -0.0546   -1.3478 O.2     1  UNL1        0.0000
     20 C           6.9628   -0.4637   -0.8228 C.ar    1  UNL1        0.0000
     21 C           6.7834   -0.9473    0.4513 C.ar    1  UNL1        0.0000
     22 C           5.3973   -0.8260    0.7315 C.ar    1  UNL1        0.0000
     23 C           4.5658   -1.1375    1.8123 C.ar    1  UNL1        0.0000
     24 C           3.1844   -0.8609    1.7173 C.ar    1  UNL1        0.0000
     25 C           2.5588   -0.2659    0.5946 C.ar    1  UNL1        0.0000
     26 C           1.0872    0.0555    0.4910 C.ar    1  UNL1        0.0000
     27 C           0.0295   -0.0415    1.4664 C.ar    1  UNL1        0.0000
     28 C           0.1283   -0.3544    2.8049 C.ar    1  UNL1        0.0000
     29 N          -1.1326   -0.3152    3.3630 N.ar    1  UNL1        0.0000
     30 C          -2.0513    0.0598    2.4199 C.ar    1  UNL1        0.0000
     31 C          -1.3701    0.2505    1.2408 C.ar    1  UNL1        0.0000
     32 H          -7.9728   -0.3365    0.8201 H       1  UNL1        0.0000
     33 H          -7.7203   -0.6667   -1.6531 H       1  UNL1        0.0000
     34 H          -6.0445   -2.8700    0.0811 H       1  UNL1        0.0000
     35 H          -3.6214   -1.9259    0.2085 H       1  UNL1        0.0000
     36 H          -6.3048    2.8686   -0.7243 H       1  UNL1        0.0000
     37 H          -1.2849    1.2209   -1.9181 H       1  UNL1        0.0000
     38 H           0.3540    1.6051   -3.5694 H       1  UNL1        0.0000
     39 H           4.3648    0.8544   -3.2444 H       1  UNL1        0.0000
     40 H           7.8234   -0.3501   -1.4672 H       1  UNL1        0.0000
     41 H           7.5543   -1.3414    1.0975 H       1  UNL1        0.0000
     42 H           4.9681   -1.5953    2.7115 H       1  UNL1        0.0000
     43 H           2.5967   -1.1704    2.5708 H       1  UNL1        0.0000
     44 H           0.9520   -0.5799    3.4601 H       1  UNL1        0.0000
     45 H          -1.3416   -0.4997    4.3358 H       1  UNL1        0.0000
     46 H          -3.0945    0.1772    2.6824 H       1  UNL1        0.0000
@<TRIPOS>BOND
     1     1     2    1
     2     2     3    2
     3     3     4    1
     4     4     5   ar
     5     5     6   ar
     6     6     7   ar
     7     7     8   ar
     8     8     9    1
     9     9    10   ar
    10    10    11   ar
    11    11    12   ar
    12    12    13   ar
    13    13    14   ar
    14    14    15   ar
    15    15    16   ar
    16    16    17   ar
    17    17    18   ar
    18    18    19   ar
    19    19    20   ar
    20    20    21   ar
    21    21    22   ar
    22    22    23   ar
    23    23    24   ar
    24    24    25   ar
    25    25    26   ar
    26    26    27   ar
    27    27    28   ar
    28    28    29   ar
    29    29    30   ar
    30    30    31   ar
    31     5     1    1
    32    31     9   ar
    33     8     4   ar
    34    26    11   ar
    35    31    27   ar
    36    16    12   ar
    37    25    17   ar
    38    22    18   ar
    39     1    32    1
    40     1    33    1
    41     2    34    1
    42     3    35    1
    43     6    36    1
    44    10    37    1
    45    13    38    1
    46    15    39    1
    47    20    40    1
    48    21    41    1
    49    23    42    1
    50    24    43    1
    51    28    44    1
    52    29    45    1
    53    30    46    1
