@<TRIPOS>MOLECULE
*****
 39 45 0 0 0
SMALL
GASTEIGER

@<TRIPOS>ATOM
      1 SI         -7.0872   -0.1422   -0.1585 Si      1  UNL1        0.0000
      2 C          -5.9118    1.0198   -1.0911 C.2     1  UNL1        0.0000
      3 C          -4.6158    0.7492   -0.8198 C.2     1  UNL1        0.0000
      4 C          -4.3793   -0.3357    0.0969 C.ar    1  UNL1        0.0000
      5 C          -5.5662   -0.9664    0.5843 C.ar    1  UNL1        0.0000
      6 C          -5.3752   -1.9928    1.4505 C.ar    1  UNL1        0.0000
      7 S          -3.6961   -2.2150    1.6943 S.2     1  UNL1        0.0000
      8 C          -3.2266   -0.9081    0.6160 C.ar    1  UNL1        0.0000
      9 C          -1.8137   -0.5950    0.4025 C.ar    1  UNL1        0.0000
     10 C          -1.2597    0.3879   -0.4019 C.ar    1  UNL1        0.0000
     11 C           0.1496    0.3770   -0.3442 C.ar    1  UNL1        0.0000
     12 C           1.0260    1.2648   -1.0576 C.ar    1  UNL1        0.0000
     13 C           0.6121    2.2551   -1.9015 C.ar    1  UNL1        0.0000
     14 S           1.9890    3.0633   -2.5311 S.2     1  UNL1        0.0000
     15 C           3.0750    2.0505   -1.6450 C.ar    1  UNL1        0.0000
     16 C           2.4288    1.1054   -0.8756 C.ar    1  UNL1        0.0000
     17 C           3.0517    0.1507   -0.0542 C.ar    1  UNL1        0.0000
     18 C           4.4115   -0.0894    0.1939 C.ar    1  UNL1        0.0000
     19 N           5.5716    0.5005   -0.2602 N.ar    1  UNL1        0.0000
     20 C           6.6741   -0.1030    0.2835 C.ar    1  UNL1        0.0000
     21 C           6.2366   -1.1075    1.1099 C.ar    1  UNL1        0.0000
     22 C           4.8142   -1.1133    1.0656 C.ar    1  UNL1        0.0000
     23 C           3.8448   -1.9033    1.6940 C.ar    1  UNL1        0.0000
     24 N           2.5280   -1.6959    1.4747 N.ar    1  UNL1        0.0000
     25 C           2.1461   -0.7065    0.6326 C.ar    1  UNL1        0.0000
     26 C           0.7322   -0.5728    0.4717 C.ar    1  UNL1        0.0000
     27 S          -0.5482   -1.4841    1.1911 S.2     1  UNL1        0.0000
     28 H          -7.8452   -1.0049   -1.0981 H       1  UNL1        0.0000
     29 H          -7.9114    0.6047    0.8237 H       1  UNL1        0.0000
     30 H          -6.2950    1.7860   -1.7460 H       1  UNL1        0.0000
     31 H          -3.8274    1.3271   -1.2766 H       1  UNL1        0.0000
     32 H          -6.0982   -2.6216    1.9522 H       1  UNL1        0.0000
     33 H          -1.8328    1.0761   -0.9985 H       1  UNL1        0.0000
     34 H          -0.3829    2.5605   -2.1918 H       1  UNL1        0.0000
     35 H           4.1237    2.2499   -1.7758 H       1  UNL1        0.0000
     36 H           5.6228    1.2725   -0.9052 H       1  UNL1        0.0000
     37 H           7.6715    0.2351    0.0347 H       1  UNL1        0.0000
     38 H           6.8677   -1.7708    1.6874 H       1  UNL1        0.0000
     39 H           4.0958   -2.7076    2.3765 H       1  UNL1        0.0000
@<TRIPOS>BOND
     1     1     2    1
     2     2     3    2
     3     3     4    1
     4     4     5   ar
     5     5     6   ar
     6     6     7   ar
     7     7     8   ar
     8     8     9    1
     9     9    10   ar
    10    10    11   ar
    11    11    12   ar
    12    12    13   ar
    13    13    14   ar
    14    14    15   ar
    15    15    16   ar
    16    16    17   ar
    17    17    18   ar
    18    18    19   ar
    19    19    20   ar
    20    20    21   ar
    21    21    22   ar
    22    22    23   ar
    23    23    24   ar
    24    24    25   ar
    25    25    26   ar
    26    26    27   ar
    27     5     1    1
    28    27     9   ar
    29     8     4   ar
    30    26    11   ar
    31    16    12   ar
    32    25    17   ar
    33    22    18   ar
    34     1    28    1
    35     1    29    1
    36     2    30    1
    37     3    31    1
    38     6    32    1
    39    10    33    1
    40    13    34    1
    41    15    35    1
    42    19    36    1
    43    20    37    1
    44    21    38    1
    45    23    39    1
