@<TRIPOS>MOLECULE
*****
 37 43 0 0 0
SMALL
GASTEIGER

@<TRIPOS>ATOM
      1 SI          6.2946    0.8778   -2.6550 Si      1  UNL1        0.0000
      2 C           5.9305    0.4093   -0.8537 C.2     1  UNL1        0.0000
      3 C           4.6037    0.3067   -0.6176 C.2     1  UNL1        0.0000
      4 C           3.7444    0.5646   -1.7438 C.ar    1  UNL1        0.0000
      5 C           4.4346    0.8932   -2.9517 C.ar    1  UNL1        0.0000
      6 C           3.6501    1.1416   -4.0302 C.ar    1  UNL1        0.0000
      7 S           2.0077    0.9740   -3.5786 S.2     1  UNL1        0.0000
      8 C           2.3669    0.5617   -1.9081 C.ar    1  UNL1        0.0000
      9 C           1.2857    0.2868   -0.9633 C.ar    1  UNL1        0.0000
     10 C           1.3758   -0.0508    0.3757 C.ar    1  UNL1        0.0000
     11 C           0.1018   -0.2390    0.9541 C.ar    1  UNL1        0.0000
     12 C          -0.1075   -0.5953    2.3285 C.ar    1  UNL1        0.0000
     13 N           0.8973   -0.7777    3.1735 N.ar    1  UNL1        0.0000
     14 S           0.1094   -1.1658    4.5988 S.2     1  UNL1        0.0000
     15 N          -1.4844   -1.0896    4.0967 N.ar    1  UNL1        0.0000
     16 C          -1.4731   -0.7561    2.7871 C.ar    1  UNL1        0.0000
     17 C          -2.6082   -0.5772    1.9393 C.ar    1  UNL1        0.0000
     18 C          -3.9327   -0.7414    2.4161 C.ar    1  UNL1        0.0000
     19 C          -4.9971   -0.5483    1.5209 C.ar    1  UNL1        0.0000
     20 C          -6.4133   -0.6150    1.6024 C.ar    1  UNL1        0.0000
     21 C          -6.8898   -0.3114    0.3481 C.ar    1  UNL1        0.0000
     22 O          -5.8632   -0.0610   -0.5052 O.2     1  UNL1        0.0000
     23 C          -4.7100   -0.2045    0.2059 C.ar    1  UNL1        0.0000
     24 C          -3.4241   -0.0320   -0.3079 C.ar    1  UNL1        0.0000
     25 C          -2.3449   -0.2237    0.5833 C.ar    1  UNL1        0.0000
     26 C          -0.9920   -0.0652    0.1323 C.ar    1  UNL1        0.0000
     27 S          -0.3837    0.3526   -1.4325 S.2     1  UNL1        0.0000
     28 H           7.0085   -0.2139   -3.3623 H       1  UNL1        0.0000
     29 H           6.9304    2.2155   -2.7462 H       1  UNL1        0.0000
     30 H           6.7308    0.2560   -0.1474 H       1  UNL1        0.0000
     31 H           4.2391    0.0460    0.3647 H       1  UNL1        0.0000
     32 H           3.9254    1.4072   -5.0420 H       1  UNL1        0.0000
     33 H           2.2965   -0.1613    0.9258 H       1  UNL1        0.0000
     34 H          -4.1241   -1.0111    3.4515 H       1  UNL1        0.0000
     35 H          -7.0119   -0.8551    2.4695 H       1  UNL1        0.0000
     36 H          -7.8800   -0.2349   -0.0792 H       1  UNL1        0.0000
     37 H          -3.2930    0.2372   -1.3494 H       1  UNL1        0.0000
@<TRIPOS>BOND
     1     1     2    1
     2     2     3    2
     3     3     4    1
     4     4     5   ar
     5     5     6   ar
     6     6     7   ar
     7     7     8   ar
     8     8     9    1
     9     9    10   ar
    10    10    11   ar
    11    11    12   ar
    12    12    13   ar
    13    13    14   ar
    14    14    15   ar
    15    15    16   ar
    16    16    17   ar
    17    17    18   ar
    18    18    19   ar
    19    19    20   ar
    20    20    21   ar
    21    21    22   ar
    22    22    23   ar
    23    23    24   ar
    24    24    25   ar
    25    25    26   ar
    26    26    27   ar
    27     5     1    1
    28    27     9   ar
    29     8     4   ar
    30    26    11   ar
    31    16    12   ar
    32    25    17   ar
    33    23    19   ar
    34     1    28    1
    35     1    29    1
    36     2    30    1
    37     3    31    1
    38     6    32    1
    39    10    33    1
    40    18    34    1
    41    20    35    1
    42    21    36    1
    43    24    37    1
