@<TRIPOS>MOLECULE
*****
 45 52 0 0 0
SMALL
GASTEIGER

@<TRIPOS>ATOM
      1 SI          8.0561   -0.7876    0.1255 Si      1  UNL1        0.0000
      2 C           6.7467   -2.1522   -0.0663 C.2     1  UNL1        0.0000
      3 C           5.4945   -1.6437   -0.0522 C.2     1  UNL1        0.0000
      4 C           5.4068   -0.2160    0.1004 C.ar    1  UNL1        0.0000
      5 C           6.6534    0.4646    0.2157 C.ar    1  UNL1        0.0000
      6 C           6.5673    1.8116    0.3595 C.ar    1  UNL1        0.0000
      7 S           4.9140    2.2752    0.3553 S.2     1  UNL1        0.0000
      8 C           4.3204    0.6407    0.1580 C.ar    1  UNL1        0.0000
      9 C           2.8649    0.3763    0.0811 C.ar    1  UNL1        0.0000
     10 C           1.8859    1.3661    0.1595 C.ar    1  UNL1        0.0000
     11 C           0.5278    1.0158    0.0761 C.ar    1  UNL1        0.0000
     12 C          -0.4925    1.9668    0.1486 C.ar    1  UNL1        0.0000
     13 C          -1.8542    1.5852    0.0616 C.ar    1  UNL1        0.0000
     14 C          -2.8717    2.5903    0.1397 C.ar    1  UNL1        0.0000
     15 N          -2.6649    3.9128    0.2934 N.ar    1  UNL1        0.0000
     16 S          -4.1488    4.6384    0.3250 S.2     1  UNL1        0.0000
     17 N          -5.1266    3.3186    0.1462 N.ar    1  UNL1        0.0000
     18 C          -4.3279    2.2369    0.0525 C.ar    1  UNL1        0.0000
     19 C          -4.7615    0.8832   -0.1120 C.ar    1  UNL1        0.0000
     20 C          -6.1955    0.6343   -0.1869 C.ar    1  UNL1        0.0000
     21 C          -6.7744   -0.6320   -0.3463 C.ar    1  UNL1        0.0000
     22 C          -5.7813   -1.5873   -0.4191 C.ar    1  UNL1        0.0000
     23 C          -6.0086   -2.9274   -0.5746 C.ar    1  UNL1        0.0000
     24 O          -4.8171   -3.5823   -0.6074 O.2     1  UNL1        0.0000
     25 C          -3.8291   -2.6460   -0.4712 C.ar    1  UNL1        0.0000
     26 C          -4.3599   -1.3822   -0.3495 C.ar    1  UNL1        0.0000
     27 C          -3.6972   -0.1156   -0.1877 C.ar    1  UNL1        0.0000
     28 C          -2.2626    0.2302   -0.1024 C.ar    1  UNL1        0.0000
     29 C          -1.1916   -0.6940   -0.1704 C.ar    1  UNL1        0.0000
     30 C           0.1729   -0.3248   -0.0847 C.ar    1  UNL1        0.0000
     31 C           1.2184   -1.2445   -0.1531 C.ar    1  UNL1        0.0000
     32 N           2.5316   -0.9267   -0.0749 N.ar    1  UNL1        0.0000
     33 H           8.8119   -0.9379    1.3942 H       1  UNL1        0.0000
     34 H           8.8939   -0.6668   -1.0938 H       1  UNL1        0.0000
     35 H           7.0287   -3.1874   -0.1698 H       1  UNL1        0.0000
     36 H           4.6135   -2.2673   -0.1492 H       1  UNL1        0.0000
     37 H           7.3514    2.5489    0.4656 H       1  UNL1        0.0000
     38 H           2.1538    2.4098    0.2846 H       1  UNL1        0.0000
     39 H          -0.2362    3.0188    0.2740 H       1  UNL1        0.0000
     40 H          -6.8776    1.4851   -0.1151 H       1  UNL1        0.0000
     41 H          -7.8398   -0.8037   -0.4004 H       1  UNL1        0.0000
     42 H          -6.8884   -3.5478   -0.6722 H       1  UNL1        0.0000
     43 H          -2.8436   -3.0800   -0.4860 H       1  UNL1        0.0000
     44 H          -1.3886   -1.7494   -0.2946 H       1  UNL1        0.0000
     45 H           1.0260   -2.3072   -0.2778 H       1  UNL1        0.0000
@<TRIPOS>BOND
     1     1     2    1
     2     2     3    2
     3     3     4    1
     4     4     5   ar
     5     5     6   ar
     6     6     7   ar
     7     7     8   ar
     8     8     9    1
     9     9    10   ar
    10    10    11   ar
    11    11    12   ar
    12    12    13   ar
    13    13    14   ar
    14    14    15   ar
    15    15    16   ar
    16    16    17   ar
    17    17    18   ar
    18    18    19   ar
    19    19    20   ar
    20    20    21   ar
    21    21    22   ar
    22    22    23   ar
    23    23    24   ar
    24    24    25   ar
    25    25    26   ar
    26    26    27   ar
    27    27    28   ar
    28    28    29   ar
    29    29    30   ar
    30    30    31   ar
    31    31    32   ar
    32     5     1    1
    33    32     9   ar
    34     8     4   ar
    35    30    11   ar
    36    28    13   ar
    37    18    14   ar
    38    27    19   ar
    39    26    22   ar
    40     1    33    1
    41     1    34    1
    42     2    35    1
    43     3    36    1
    44     6    37    1
    45    10    38    1
    46    12    39    1
    47    20    40    1
    48    21    41    1
    49    23    42    1
    50    25    43    1
    51    29    44    1
    52    31    45    1
