@<TRIPOS>MOLECULE
*****
 44 51 0 0 0
SMALL
GASTEIGER

@<TRIPOS>ATOM
      1 SI          7.8076    0.0852    0.3590 Si      1  UNL1        0.0000
      2 C           6.6878   -1.2345    1.1599 C.2     1  UNL1        0.0000
      3 C           5.3862   -1.0286    0.8602 C.2     1  UNL1        0.0000
      4 C           5.1221    0.1066    0.0204 C.ar    1  UNL1        0.0000
      5 C           6.2589    0.8719   -0.3673 C.ar    1  UNL1        0.0000
      6 C           5.9907    1.9605   -1.1362 C.ar    1  UNL1        0.0000
      7 S           4.2920    2.0672   -1.3982 S.2     1  UNL1        0.0000
      8 C           3.9500    0.6248   -0.4853 C.ar    1  UNL1        0.0000
      9 C           2.6004    0.1472   -0.3568 C.ar    1  UNL1        0.0000
     10 C           2.1078   -1.1347   -0.2100 C.ar    1  UNL1        0.0000
     11 C           0.6909   -1.0591   -0.1218 C.ar    1  UNL1        0.0000
     12 C          -0.3316   -1.9971    0.0634 C.ar    1  UNL1        0.0000
     13 C          -1.6803   -1.5557    0.1118 C.ar    1  UNL1        0.0000
     14 C          -2.7082   -2.5124    0.3874 C.ar    1  UNL1        0.0000
     15 N          -2.5277   -3.8321    0.5941 N.ar    1  UNL1        0.0000
     16 S          -4.0112   -4.4846    0.9115 S.2     1  UNL1        0.0000
     17 N          -4.9573   -3.1348    0.8020 N.ar    1  UNL1        0.0000
     18 C          -4.1470   -2.1008    0.4988 C.ar    1  UNL1        0.0000
     19 C          -4.5559   -0.7461    0.2863 C.ar    1  UNL1        0.0000
     20 C          -5.9649   -0.4388    0.4244 C.ar    1  UNL1        0.0000
     21 C          -6.5201    0.8257    0.2004 C.ar    1  UNL1        0.0000
     22 C          -5.5563    1.7239   -0.2324 C.ar    1  UNL1        0.0000
     23 C          -5.9154    3.0020   -0.5867 C.ar    1  UNL1        0.0000
     24 S          -4.5771    3.8750   -1.1925 S.2     1  UNL1        0.0000
     25 C          -3.5273    2.5285   -0.9852 C.ar    1  UNL1        0.0000
     26 C          -4.1359    1.4491   -0.3813 C.ar    1  UNL1        0.0000
     27 C          -3.4962    0.1895   -0.0652 C.ar    1  UNL1        0.0000
     28 C          -2.0679   -0.1944   -0.0685 C.ar    1  UNL1        0.0000
     29 C          -0.9932    0.7212   -0.1944 C.ar    1  UNL1        0.0000
     30 C           0.3406    0.2771   -0.2337 C.ar    1  UNL1        0.0000
     31 N           1.5112    0.9878   -0.3688 N.ar    1  UNL1        0.0000
     32 H           8.7094   -0.5191   -0.6529 H       1  UNL1        0.0000
     33 H           8.4779    0.9160    1.3899 H       1  UNL1        0.0000
     34 H           7.1032   -2.0160    1.7754 H       1  UNL1        0.0000
     35 H           4.5949   -1.6632    1.2399 H       1  UNL1        0.0000
     36 H           6.6631    2.6970   -1.5546 H       1  UNL1        0.0000
     37 H           2.6966   -2.0414   -0.1754 H       1  UNL1        0.0000
     38 H          -0.0818   -3.0479    0.1879 H       1  UNL1        0.0000
     39 H          -6.6507   -1.2366    0.7185 H       1  UNL1        0.0000
     40 H          -7.5772    1.0302    0.3069 H       1  UNL1        0.0000
     41 H          -6.8919    3.4661   -0.5527 H       1  UNL1        0.0000
     42 H          -2.5268    2.6456   -1.3643 H       1  UNL1        0.0000
     43 H          -1.1612    1.7888   -0.2075 H       1  UNL1        0.0000
     44 H           1.5720    1.9910   -0.4703 H       1  UNL1        0.0000
@<TRIPOS>BOND
     1     1     2    1
     2     2     3    2
     3     3     4    1
     4     4     5   ar
     5     5     6   ar
     6     6     7   ar
     7     7     8   ar
     8     8     9    1
     9     9    10   ar
    10    10    11   ar
    11    11    12   ar
    12    12    13   ar
    13    13    14   ar
    14    14    15   ar
    15    15    16   ar
    16    16    17   ar
    17    17    18   ar
    18    18    19   ar
    19    19    20   ar
    20    20    21   ar
    21    21    22   ar
    22    22    23   ar
    23    23    24   ar
    24    24    25   ar
    25    25    26   ar
    26    26    27   ar
    27    27    28   ar
    28    28    29   ar
    29    29    30   ar
    30    30    31   ar
    31     5     1    1
    32    31     9   ar
    33     8     4   ar
    34    30    11   ar
    35    28    13   ar
    36    18    14   ar
    37    27    19   ar
    38    26    22   ar
    39     1    32    1
    40     1    33    1
    41     2    34    1
    42     3    35    1
    43     6    36    1
    44    10    37    1
    45    12    38    1
    46    20    39    1
    47    21    40    1
    48    23    41    1
    49    25    42    1
    50    29    43    1
    51    31    44    1
