@<TRIPOS>MOLECULE
*****
 41 47 0 0 0
SMALL
GASTEIGER

@<TRIPOS>ATOM
      1 SI          7.7129   -0.1437   -0.6981 Si      1  UNL1        0.0000
      2 C           6.3858    1.0282   -1.4213 C.2     1  UNL1        0.0000
      3 C           5.1467    0.6945   -0.9979 C.2     1  UNL1        0.0000
      4 C           5.0888   -0.4355   -0.1139 C.ar    1  UNL1        0.0000
      5 C           6.3301   -1.0601    0.1914 C.ar    1  UNL1        0.0000
      6 C           6.2456   -2.1382    1.0163 C.ar    1  UNL1        0.0000
      7 S           4.5958   -2.4041    1.4422 S.2     1  UNL1        0.0000
      8 C           4.0274   -1.0591    0.5030 C.ar    1  UNL1        0.0000
      9 C           2.6320   -0.7066    0.4683 C.ar    1  UNL1        0.0000
     10 C           2.0896    0.5313    0.7363 C.ar    1  UNL1        0.0000
     11 C           0.6603    0.5678    0.6026 C.ar    1  UNL1        0.0000
     12 C          -0.2404    1.6219    0.7921 C.ar    1  UNL1        0.0000
     13 N          -1.5689    1.4533    0.6109 N.ar    1  UNL1        0.0000
     14 C          -2.0703    0.2492    0.2402 C.ar    1  UNL1        0.0000
     15 C          -1.2393   -0.8588    0.0309 C.ar    1  UNL1        0.0000
     16 N          -1.6361   -2.1066   -0.3420 N.ar    1  UNL1        0.0000
     17 C          -2.9605   -2.2929   -0.5266 C.ar    1  UNL1        0.0000
     18 C          -3.9325   -1.3130   -0.3654 C.ar    1  UNL1        0.0000
     19 C          -5.3293   -1.6250   -0.5910 C.ar    1  UNL1        0.0000
     20 C          -6.3967   -0.7102   -0.4569 C.ar    1  UNL1        0.0000
     21 C          -5.9180    0.5318   -0.0778 C.ar    1  UNL1        0.0000
     22 C          -6.6906    1.6432    0.1393 C.ar    1  UNL1        0.0000
     23 N          -5.8329    2.6599    0.4977 N.ar    1  UNL1        0.0000
     24 C          -4.5326    2.2031    0.5087 C.ar    1  UNL1        0.0000
     25 C          -4.5515    0.8755    0.1532 C.ar    1  UNL1        0.0000
     26 C          -3.4498   -0.0161    0.0287 C.ar    1  UNL1        0.0000
     27 C           0.1469   -0.6736    0.2217 C.ar    1  UNL1        0.0000
     28 S           1.4217   -1.8306    0.0460 S.2     1  UNL1        0.0000
     29 H           8.3707   -0.9292   -1.7713 H       1  UNL1        0.0000
     30 H           8.6298    0.5918    0.2077 H       1  UNL1        0.0000
     31 H           6.6601    1.8289   -2.0891 H       1  UNL1        0.0000
     32 H           4.2567    1.2283   -1.3109 H       1  UNL1        0.0000
     33 H           7.0243   -2.7856    1.3961 H       1  UNL1        0.0000
     34 H           2.6888    1.3858    1.0287 H       1  UNL1        0.0000
     35 H           0.0760    2.6164    1.0897 H       1  UNL1        0.0000
     36 H          -3.2259   -3.3054   -0.8227 H       1  UNL1        0.0000
     37 H          -5.5895   -2.6433   -0.8881 H       1  UNL1        0.0000
     38 H          -7.4317   -0.9661   -0.6305 H       1  UNL1        0.0000
     39 H          -7.7563    1.8154    0.0765 H       1  UNL1        0.0000
     40 H          -6.1136    3.6057    0.7215 H       1  UNL1        0.0000
     41 H          -3.7232    2.8716    0.7697 H       1  UNL1        0.0000
@<TRIPOS>BOND
     1     1     2    1
     2     2     3    2
     3     3     4    1
     4     4     5   ar
     5     5     6   ar
     6     6     7   ar
     7     7     8   ar
     8     8     9    1
     9     9    10   ar
    10    10    11   ar
    11    11    12   ar
    12    12    13   ar
    13    13    14   ar
    14    14    15   ar
    15    15    16   ar
    16    16    17   ar
    17    17    18   ar
    18    18    19   ar
    19    19    20   ar
    20    20    21   ar
    21    21    22   ar
    22    22    23   ar
    23    23    24   ar
    24    24    25   ar
    25    25    26   ar
    26    15    27   ar
    27    27    28   ar
    28     5     1    1
    29    28     9   ar
    30     8     4   ar
    31    27    11   ar
    32    26    14   ar
    33    26    18   ar
    34    25    21   ar
    35     1    29    1
    36     1    30    1
    37     2    31    1
    38     3    32    1
    39     6    33    1
    40    10    34    1
    41    12    35    1
    42    17    36    1
    43    19    37    1
    44    20    38    1
    45    22    39    1
    46    23    40    1
    47    24    41    1
