@<TRIPOS>MOLECULE
*****
 40 45 0 0 0
SMALL
GASTEIGER

@<TRIPOS>ATOM
      1 SI          0.6296   -1.1797    0.0013 Si      1  UNL1        0.0000
      2 C           1.7326    0.3138    0.3735 C.2     1  UNL1        0.0000
      3 C           1.0260    1.4244    0.6629 C.2     1  UNL1        0.0000
      4 C          -0.4278    1.2268    0.5968 C.ar    1  UNL1        0.0000
      5 C          -1.3864    2.1823    0.8283 C.ar    1  UNL1        0.0000
      6 N          -2.7070    1.9144    0.7500 N.ar    1  UNL1        0.0000
      7 C          -3.1211    0.6494    0.4296 C.ar    1  UNL1        0.0000
      8 C          -2.2021   -0.3980    0.1746 C.ar    1  UNL1        0.0000
      9 N          -2.5660   -1.6550   -0.1441 N.ar    1  UNL1        0.0000
     10 C          -3.8809   -1.9198   -0.2207 C.ar    1  UNL1        0.0000
     11 C          -4.8712   -0.9779    0.0076 C.ar    1  UNL1        0.0000
     12 C          -6.2346   -1.3037   -0.0847 C.ar    1  UNL1        0.0000
     13 C          -7.1918   -0.3292    0.1519 C.ar    1  UNL1        0.0000
     14 C          -6.7494    0.9359    0.4722 C.ar    1  UNL1        0.0000
     15 N          -5.4444    1.2718    0.5665 N.ar    1  UNL1        0.0000
     16 C          -4.4860    0.3350    0.3396 C.ar    1  UNL1        0.0000
     17 C          -0.8596   -0.0739    0.2675 C.ar    1  UNL1        0.0000
     18 C           3.1749    0.2034    0.4071 C.ar    1  UNL1        0.0000
     19 C           3.9601    0.2860    1.5845 C.ar    1  UNL1        0.0000
     20 C           5.3955    0.1738    1.6070 C.ar    1  UNL1        0.0000
     21 C           6.1966   -0.0231    0.4586 C.ar    1  UNL1        0.0000
     22 C           5.4076   -0.0851   -0.6824 C.ar    1  UNL1        0.0000
     23 C           5.8633   -0.2481   -1.9646 C.ar    1  UNL1        0.0000
     24 N           4.7562   -0.2322   -2.7864 N.ar    1  UNL1        0.0000
     25 C           3.6074   -0.0598   -2.0407 C.ar    1  UNL1        0.0000
     26 C           3.9831    0.0211   -0.7211 C.ar    1  UNL1        0.0000
     27 H           0.7710   -2.2316    1.0428 H       1  UNL1        0.0000
     28 H           0.7684   -1.6314   -1.4094 H       1  UNL1        0.0000
     29 H           1.4580    2.3818    0.9241 H       1  UNL1        0.0000
     30 H          -1.1337    3.2054    1.0872 H       1  UNL1        0.0000
     31 H          -4.1213   -2.9478   -0.4800 H       1  UNL1        0.0000
     32 H          -6.5521   -2.3120   -0.3395 H       1  UNL1        0.0000
     33 H          -8.2512   -0.5492    0.0887 H       1  UNL1        0.0000
     34 H          -7.4474    1.7447    0.6693 H       1  UNL1        0.0000
     35 H           3.4537    0.4371    2.5386 H       1  UNL1        0.0000
     36 H           5.8938    0.2475    2.5743 H       1  UNL1        0.0000
     37 H           7.2735   -0.1020    0.4874 H       1  UNL1        0.0000
     38 H           6.8561   -0.3655   -2.3767 H       1  UNL1        0.0000
     39 H           4.7818   -0.3228   -3.7937 H       1  UNL1        0.0000
     40 H           2.6449   -0.0067   -2.5304 H       1  UNL1        0.0000
@<TRIPOS>BOND
     1     1     2    1
     2     2     3    2
     3     3     4    1
     4     4     5   ar
     5     5     6   ar
     6     6     7   ar
     7     7     8   ar
     8     8     9   ar
     9     9    10   ar
    10    10    11   ar
    11    11    12   ar
    12    12    13   ar
    13    13    14   ar
    14    14    15   ar
    15    15    16   ar
    16     8    17   ar
    17     2    18    1
    18    18    19   ar
    19    19    20   ar
    20    20    21   ar
    21    21    22   ar
    22    22    23   ar
    23    23    24   ar
    24    24    25   ar
    25    25    26   ar
    26    17     1    1
    27    26    18   ar
    28    17     4   ar
    29    26    22   ar
    30    16     7   ar
    31    16    11   ar
    32     1    27    1
    33     1    28    1
    34     3    29    1
    35     5    30    1
    36    10    31    1
    37    12    32    1
    38    13    33    1
    39    14    34    1
    40    19    35    1
    41    20    36    1
    42    21    37    1
    43    23    38    1
    44    24    39    1
    45    25    40    1
