@<TRIPOS>MOLECULE
*****
 37 42 0 0 0
SMALL
GASTEIGER

@<TRIPOS>ATOM
      1 SI          6.9978    0.7442    0.9128 Si      1  UNL1        0.0000
      2 C           5.5935    0.4720    2.1799 C.2     1  UNL1        0.0000
      3 C           4.3968    0.3234    1.5700 C.2     1  UNL1        0.0000
      4 C           4.4302    0.3953    0.1361 C.ar    1  UNL1        0.0000
      5 C           5.7060    0.6223   -0.4517 C.ar    1  UNL1        0.0000
      6 C           5.7103    0.7029   -1.8092 C.ar    1  UNL1        0.0000
      7 S           4.1038    0.4931   -2.3986 S.2     1  UNL1        0.0000
      8 C           3.4322    0.2978   -0.8082 C.ar    1  UNL1        0.0000
      9 C           2.0279    0.0419   -0.6136 C.ar    1  UNL1        0.0000
     10 C           1.4708   -0.9513    0.1632 C.ar    1  UNL1        0.0000
     11 C           0.0472   -0.9253    0.1603 C.ar    1  UNL1        0.0000
     12 N          -0.7388   -1.7943    0.8445 N.ar    1  UNL1        0.0000
     13 C          -2.0717   -1.6088    0.7143 C.ar    1  UNL1        0.0000
     14 C          -2.7211   -0.6232   -0.0431 C.ar    1  UNL1        0.0000
     15 C          -1.8761    0.2578   -0.7352 C.ar    1  UNL1        0.0000
     16 C          -2.4618    1.2610   -1.5063 C.ar    1  UNL1        0.0000
     17 N          -3.7942    1.4384   -1.6284 N.ar    1  UNL1        0.0000
     18 C          -4.6099    0.6021   -0.9717 C.ar    1  UNL1        0.0000
     19 C          -5.9770    0.7992   -1.1094 C.ar    1  UNL1        0.0000
     20 C          -6.9106   -0.0154   -0.4684 C.ar    1  UNL1        0.0000
     21 C          -6.4719   -1.0568    0.3333 C.ar    1  UNL1        0.0000
     22 C          -5.1028   -1.2762    0.4883 C.ar    1  UNL1        0.0000
     23 C          -4.1413   -0.4559   -0.1574 C.ar    1  UNL1        0.0000
     24 C          -0.4660    0.1018   -0.6299 C.ar    1  UNL1        0.0000
     25 S           0.8177    1.0054   -1.3426 S.2     1  UNL1        0.0000
     26 H           7.5949    2.0944    1.0612 H       1  UNL1        0.0000
     27 H           7.9604   -0.3848    0.9352 H       1  UNL1        0.0000
     28 H           5.7981    0.4580    3.2384 H       1  UNL1        0.0000
     29 H           3.4751    0.1712    2.1201 H       1  UNL1        0.0000
     30 H           6.5318    0.8691   -2.4928 H       1  UNL1        0.0000
     31 H           2.0502   -1.6820    0.7127 H       1  UNL1        0.0000
     32 H          -2.6428   -2.3373    1.2849 H       1  UNL1        0.0000
     33 H          -1.8688    1.9773   -2.0687 H       1  UNL1        0.0000
     34 H          -6.3271    1.6155   -1.7380 H       1  UNL1        0.0000
     35 H          -7.9736    0.1689   -0.5998 H       1  UNL1        0.0000
     36 H          -7.1897   -1.6988    0.8380 H       1  UNL1        0.0000
     37 H          -4.7995   -2.1029    1.1249 H       1  UNL1        0.0000
@<TRIPOS>BOND
     1     1     2    1
     2     2     3    2
     3     3     4    1
     4     4     5   ar
     5     5     6   ar
     6     6     7   ar
     7     7     8   ar
     8     8     9    1
     9     9    10   ar
    10    10    11   ar
    11    11    12   ar
    12    12    13   ar
    13    13    14   ar
    14    14    15   ar
    15    15    16   ar
    16    16    17   ar
    17    17    18   ar
    18    18    19   ar
    19    19    20   ar
    20    20    21   ar
    21    21    22   ar
    22    22    23   ar
    23    15    24   ar
    24    24    25   ar
    25     5     1    1
    26    25     9   ar
    27     8     4   ar
    28    24    11   ar
    29    23    14   ar
    30    23    18   ar
    31     1    26    1
    32     1    27    1
    33     2    28    1
    34     3    29    1
    35     6    30    1
    36    10    31    1
    37    13    32    1
    38    16    33    1
    39    19    34    1
    40    20    35    1
    41    21    36    1
    42    22    37    1
