@<TRIPOS>MOLECULE
*****
 39 44 0 0 0
SMALL
GASTEIGER

@<TRIPOS>ATOM
      1 SI          5.8827    0.2910   -0.2585 Si      1  UNL1        0.0000
      2 C           4.5882    1.6882   -0.4497 C.2     1  UNL1        0.0000
      3 C           3.3283    1.2000   -0.4229 C.2     1  UNL1        0.0000
      4 C           3.2347   -0.2212   -0.2598 C.ar    1  UNL1        0.0000
      5 C           4.4584   -0.9342   -0.1479 C.ar    1  UNL1        0.0000
      6 C           4.3278   -2.2803    0.0032 C.ar    1  UNL1        0.0000
      7 S           2.6515   -2.6978    0.0093 S.2     1  UNL1        0.0000
      8 C           2.1432   -1.0527   -0.1876 C.ar    1  UNL1        0.0000
      9 C           0.7104   -0.7446   -0.2579 C.ar    1  UNL1        0.0000
     10 C           0.0890   -0.8765   -1.5059 C.ar    1  UNL1        0.0000
     11 C          -1.2376   -0.5742   -1.7071 C.ar    1  UNL1        0.0000
     12 N          -1.6887   -0.7465   -2.9570 N.ar    1  UNL1        0.0000
     13 C          -2.9659   -0.4472   -3.2645 C.ar    1  UNL1        0.0000
     14 C          -3.8139    0.0990   -2.3058 C.ar    1  UNL1        0.0000
     15 C          -5.1624    0.5480   -2.3497 C.ar    1  UNL1        0.0000
     16 C          -5.4673    1.0529   -1.1122 C.ar    1  UNL1        0.0000
     17 N          -4.3532    0.9238   -0.3275 N.ar    1  UNL1        0.0000
     18 C          -3.3311    0.2843   -1.0040 C.ar    1  UNL1        0.0000
     19 C          -2.0034   -0.1040   -0.6095 C.ar    1  UNL1        0.0000
     20 C          -1.4170   -0.0357    0.7194 C.ar    1  UNL1        0.0000
     21 C          -2.1324    0.2733    1.9071 C.ar    1  UNL1        0.0000
     22 C          -1.5240    0.3694    3.1615 C.ar    1  UNL1        0.0000
     23 C          -0.1684    0.1395    3.2830 C.ar    1  UNL1        0.0000
     24 C           0.5622   -0.2154    2.1540 C.ar    1  UNL1        0.0000
     25 C          -0.0337   -0.3290    0.8719 C.ar    1  UNL1        0.0000
     26 H           6.7066    0.1566   -1.4855 H       1  UNL1        0.0000
     27 H           6.6453    0.4454    1.0055 H       1  UNL1        0.0000
     28 H           4.8941    2.7155   -0.5636 H       1  UNL1        0.0000
     29 H           2.4475    1.8252   -0.5181 H       1  UNL1        0.0000
     30 H           5.0855   -3.0449    0.1069 H       1  UNL1        0.0000
     31 H           0.6740   -1.2173   -2.3596 H       1  UNL1        0.0000
     32 H          -3.2691   -0.6245   -4.2900 H       1  UNL1        0.0000
     33 H          -5.8243    0.5270   -3.2058 H       1  UNL1        0.0000
     34 H          -6.3675    1.5143   -0.7285 H       1  UNL1        0.0000
     35 H          -4.2881    1.3019    0.6038 H       1  UNL1        0.0000
     36 H          -3.2062    0.3969    1.8993 H       1  UNL1        0.0000
     37 H          -2.1179    0.6083    4.0399 H       1  UNL1        0.0000
     38 H           0.3199    0.2073    4.2511 H       1  UNL1        0.0000
     39 H           1.6225   -0.4219    2.2920 H       1  UNL1        0.0000
@<TRIPOS>BOND
     1     1     2    1
     2     2     3    2
     3     3     4    1
     4     4     5   ar
     5     5     6   ar
     6     6     7   ar
     7     7     8   ar
     8     8     9    1
     9     9    10   ar
    10    10    11   ar
    11    11    12   ar
    12    12    13   ar
    13    13    14   ar
    14    14    15   ar
    15    15    16   ar
    16    16    17   ar
    17    17    18   ar
    18    18    19   ar
    19    19    20   ar
    20    20    21   ar
    21    21    22   ar
    22    22    23   ar
    23    23    24   ar
    24    24    25   ar
    25     5     1    1
    26    25     9   ar
    27     8     4   ar
    28    19    11   ar
    29    25    20   ar
    30    18    14   ar
    31     1    26    1
    32     1    27    1
    33     2    28    1
    34     3    29    1
    35     6    30    1
    36    10    31    1
    37    13    32    1
    38    15    33    1
    39    16    34    1
    40    17    35    1
    41    21    36    1
    42    22    37    1
    43    23    38    1
    44    24    39    1
