@<TRIPOS>MOLECULE
*****
 40 47 0 0 0
SMALL
GASTEIGER

@<TRIPOS>ATOM
      1 SI          6.8019   -1.9929   -0.0725 Si      1  UNL1        0.0000
      2 C           5.2048   -2.6710    0.7322 C.2     1  UNL1        0.0000
      3 C           4.1763   -1.8049    0.5981 C.2     1  UNL1        0.0000
      4 C           4.4885   -0.5935   -0.1065 C.ar    1  UNL1        0.0000
      5 C           5.8304   -0.4563   -0.5585 C.ar    1  UNL1        0.0000
      6 C           6.1046    0.7084   -1.2047 C.ar    1  UNL1        0.0000
      7 S           4.6790    1.6763   -1.2697 S.2     1  UNL1        0.0000
      8 C           3.7152    0.5007   -0.4267 C.ar    1  UNL1        0.0000
      9 C           2.2954    0.7723   -0.1951 C.ar    1  UNL1        0.0000
     10 C           1.3273   -0.1558   -0.5560 C.ar    1  UNL1        0.0000
     11 C           0.0311    0.2368   -0.2645 C.ar    1  UNL1        0.0000
     12 O          -1.0910   -0.5030   -0.5235 O.2     1  UNL1        0.0000
     13 C          -2.1731    0.2214   -0.0939 C.ar    1  UNL1        0.0000
     14 C          -1.6919    1.4016    0.4255 C.ar    1  UNL1        0.0000
     15 C          -0.2978    1.4488    0.3359 C.ar    1  UNL1        0.0000
     16 C           0.7394    2.3184    0.6629 C.ar    1  UNL1        0.0000
     17 N           2.0236    1.9671    0.3948 N.ar    1  UNL1        0.0000
     18 C          -2.6152    2.3476    0.9466 C.ar    1  UNL1        0.0000
     19 N          -2.2356    3.5046    1.4640 N.ar    1  UNL1        0.0000
     20 S          -3.6952    4.1988    1.9078 S.2     1  UNL1        0.0000
     21 N          -4.7639    3.0017    1.4276 N.ar    1  UNL1        0.0000
     22 C          -4.0300    2.0005    0.8955 C.ar    1  UNL1        0.0000
     23 C          -4.5260    0.7667    0.3520 C.ar    1  UNL1        0.0000
     24 C          -5.9212    0.4658    0.3212 C.ar    1  UNL1        0.0000
     25 C          -6.4344   -0.7325   -0.2037 C.ar    1  UNL1        0.0000
     26 C          -5.4908   -1.6567   -0.7149 C.ar    1  UNL1        0.0000
     27 N          -5.7888   -2.8485   -1.2533 N.ar    1  UNL1        0.0000
     28 S          -4.3472   -3.5400   -1.6952 S.2     1  UNL1        0.0000
     29 N          -3.2810   -2.3628   -1.2228 N.ar    1  UNL1        0.0000
     30 C          -4.0046   -1.3610   -0.6936 C.ar    1  UNL1        0.0000
     31 C          -3.5274   -0.1350   -0.1535 C.ar    1  UNL1        0.0000
     32 H           7.2133   -2.8372   -1.2217 H       1  UNL1        0.0000
     33 H           7.8514   -1.7537    0.9490 H       1  UNL1        0.0000
     34 H           5.1988   -3.6288    1.2271 H       1  UNL1        0.0000
     35 H           3.1903   -2.0008    1.0037 H       1  UNL1        0.0000
     36 H           7.0307    1.0624   -1.6367 H       1  UNL1        0.0000
     37 H           1.5502   -1.0992   -1.0332 H       1  UNL1        0.0000
     38 H           0.5906    3.2852    1.1313 H       1  UNL1        0.0000
     39 H          -6.6303    1.1936    0.7212 H       1  UNL1        0.0000
     40 H          -7.4973   -0.9451   -0.2195 H       1  UNL1        0.0000
@<TRIPOS>BOND
     1     1     2    1
     2     2     3    2
     3     3     4    1
     4     4     5   ar
     5     5     6   ar
     6     6     7   ar
     7     7     8   ar
     8     8     9    1
     9     9    10   ar
    10    10    11   ar
    11    11    12   ar
    12    12    13   ar
    13    13    14   ar
    14    14    15   ar
    15    15    16   ar
    16    16    17   ar
    17    14    18   ar
    18    18    19   ar
    19    19    20   ar
    20    20    21   ar
    21    21    22   ar
    22    22    23   ar
    23    23    24   ar
    24    24    25   ar
    25    25    26   ar
    26    26    27   ar
    27    27    28   ar
    28    28    29   ar
    29    29    30   ar
    30    30    31   ar
    31     5     1    1
    32    17     9   ar
    33    22    18   ar
    34    31    23   ar
    35     8     4   ar
    36    15    11   ar
    37    30    26   ar
    38    31    13   ar
    39     1    32    1
    40     1    33    1
    41     2    34    1
    42     3    35    1
    43     6    36    1
    44    10    37    1
    45    16    38    1
    46    24    39    1
    47    25    40    1
