@<TRIPOS>MOLECULE
*****
 40 47 0 0 0
SMALL
GASTEIGER

@<TRIPOS>ATOM
      1 SI         -7.0443    0.6255    0.7735 Si      1  UNL1        0.0000
      2 C          -5.7578    0.6867    2.1854 C.2     1  UNL1        0.0000
      3 C          -4.5235    0.3593    1.7432 C.2     1  UNL1        0.0000
      4 C          -4.4418    0.0463    0.3451 C.ar    1  UNL1        0.0000
      5 C          -5.6549    0.1229   -0.3923 C.ar    1  UNL1        0.0000
      6 C          -5.5451   -0.1713   -1.7157 C.ar    1  UNL1        0.0000
      7 S          -3.9034   -0.5523   -2.0823 S.2     1  UNL1        0.0000
      8 C          -3.3757   -0.3169   -0.4448 C.ar    1  UNL1        0.0000
      9 C          -1.9687   -0.5151   -0.1208 C.ar    1  UNL1        0.0000
     10 C          -0.9467    0.2661   -0.7034 C.ar    1  UNL1        0.0000
     11 C           0.3760    0.0116   -0.3319 C.ar    1  UNL1        0.0000
     12 O           1.4799    0.6728   -0.7951 O.2     1  UNL1        0.0000
     13 C           2.5714    0.1156   -0.1807 C.ar    1  UNL1        0.0000
     14 C           2.1811   -0.9088    0.6851 C.ar    1  UNL1        0.0000
     15 N           3.0624   -1.6285    1.4221 N.ar    1  UNL1        0.0000
     16 C           4.3622   -1.2829    1.2576 C.ar    1  UNL1        0.0000
     17 C           4.8620   -0.2786    0.4211 C.ar    1  UNL1        0.0000
     18 C           6.2547   -0.0025    0.3289 C.ar    1  UNL1        0.0000
     19 C           6.7996    0.9987   -0.4993 C.ar    1  UNL1        0.0000
     20 C           5.8804    1.7521   -1.2681 C.ar    1  UNL1        0.0000
     21 N           6.2003    2.7439   -2.1123 N.ar    1  UNL1        0.0000
     22 S           4.7710    3.2914   -2.7550 S.2     1  UNL1        0.0000
     23 N           3.6862    2.2972   -1.9913 N.ar    1  UNL1        0.0000
     24 C           4.3952    1.4822   -1.1915 C.ar    1  UNL1        0.0000
     25 C           3.9110    0.4578   -0.3365 C.ar    1  UNL1        0.0000
     26 C           0.7928   -0.9445    0.5633 C.ar    1  UNL1        0.0000
     27 C          -0.1889   -1.7647    1.1834 C.ar    1  UNL1        0.0000
     28 N           0.1026   -2.7127    2.0583 N.ar    1  UNL1        0.0000
     29 S          -1.4014   -3.3394    2.4369 S.2     1  UNL1        0.0000
     30 N          -2.3836   -2.3795    1.4837 N.ar    1  UNL1        0.0000
     31 C          -1.5826   -1.5215    0.8149 C.ar    1  UNL1        0.0000
     32 H          -7.5996    1.9750    0.5025 H       1  UNL1        0.0000
     33 H          -8.0525   -0.4369    1.0129 H       1  UNL1        0.0000
     34 H          -6.0481    0.9494    3.1897 H       1  UNL1        0.0000
     35 H          -3.6561    0.3253    2.3922 H       1  UNL1        0.0000
     36 H          -6.3020   -0.1900   -2.4879 H       1  UNL1        0.0000
     37 H          -1.1730    1.0513   -1.4188 H       1  UNL1        0.0000
     38 H           5.0422   -1.8816    1.8633 H       1  UNL1        0.0000
     39 H           6.9528   -0.5913    0.9275 H       1  UNL1        0.0000
     40 H           7.8656    1.1879   -0.5504 H       1  UNL1        0.0000
@<TRIPOS>BOND
     1     1     2    1
     2     2     3    2
     3     3     4    1
     4     4     5   ar
     5     5     6   ar
     6     6     7   ar
     7     7     8   ar
     8     8     9    1
     9     9    10   ar
    10    10    11   ar
    11    11    12   ar
    12    12    13   ar
    13    13    14   ar
    14    14    15   ar
    15    15    16   ar
    16    16    17   ar
    17    17    18   ar
    18    18    19   ar
    19    19    20   ar
    20    20    21   ar
    21    21    22   ar
    22    22    23   ar
    23    23    24   ar
    24    24    25   ar
    25    14    26   ar
    26    26    27   ar
    27    27    28   ar
    28    28    29   ar
    29    29    30   ar
    30    30    31   ar
    31     5     1    1
    32    31     9   ar
    33     8     4   ar
    34    26    11   ar
    35    31    27   ar
    36    25    13   ar
    37    25    17   ar
    38    24    20   ar
    39     1    32    1
    40     1    33    1
    41     2    34    1
    42     3    35    1
    43     6    36    1
    44    10    37    1
    45    16    38    1
    46    18    39    1
    47    19    40    1
