@<TRIPOS>MOLECULE
*****
 33 38 0 0 0
SMALL
GASTEIGER

@<TRIPOS>ATOM
      1 SI          6.3237   -0.3697    0.6194 Si      1  UNL1        0.0000
      2 C           5.1472   -1.8709    0.6356 C.2     1  UNL1        0.0000
      3 C           3.8524   -1.4867    0.5876 C.2     1  UNL1        0.0000
      4 C           3.6352   -0.0676    0.5402 C.ar    1  UNL1        0.0000
      5 C           4.8068    0.7420    0.5311 C.ar    1  UNL1        0.0000
      6 C           4.5855    2.0813    0.4557 C.ar    1  UNL1        0.0000
      7 S           2.8897    2.3750    0.3884 S.2     1  UNL1        0.0000
      8 C           2.4833    0.6857    0.4838 C.ar    1  UNL1        0.0000
      9 C           1.1053    0.2643    0.4999 C.ar    1  UNL1        0.0000
     10 C           0.5266   -0.8349    1.1643 C.ar    1  UNL1        0.0000
     11 C          -0.8377   -0.7677    0.8304 C.ar    1  UNL1        0.0000
     12 O          -2.0363   -1.3940    1.0278 O.2     1  UNL1        0.0000
     13 C          -2.9273   -0.6424    0.3158 C.ar    1  UNL1        0.0000
     14 C          -4.2642   -0.4989   -0.0565 C.ar    1  UNL1        0.0000
     15 N          -5.3520   -1.2384    0.2436 N.ar    1  UNL1        0.0000
     16 C          -6.4854   -0.7577   -0.3240 C.ar    1  UNL1        0.0000
     17 C          -6.5777    0.3739   -1.1389 C.ar    1  UNL1        0.0000
     18 C          -5.4328    1.1219   -1.4336 C.ar    1  UNL1        0.0000
     19 C          -4.2560    0.6512   -0.8642 C.ar    1  UNL1        0.0000
     20 O          -2.9941    1.2069   -0.9996 O.2     1  UNL1        0.0000
     21 C          -2.2709    0.3604   -0.2582 C.ar    1  UNL1        0.0000
     22 C          -1.0010    0.2951    0.0470 C.ar    1  UNL1        0.0000
     23 N           0.1203    0.9721   -0.1941 N.ar    1  UNL1        0.0000
     24 H           7.0765   -0.2647    1.8939 H       1  UNL1        0.0000
     25 H           7.1542   -0.3539   -0.6105 H       1  UNL1        0.0000
     26 H           5.5317   -2.8776    0.6683 H       1  UNL1        0.0000
     27 H           3.0351   -2.1974    0.5694 H       1  UNL1        0.0000
     28 H           5.2908    2.9008    0.4304 H       1  UNL1        0.0000
     29 H           1.0226   -1.5557    1.7973 H       1  UNL1        0.0000
     30 H          -7.3789   -1.3366   -0.0972 H       1  UNL1        0.0000
     31 H          -7.5415    0.6706   -1.5425 H       1  UNL1        0.0000
     32 H          -5.4547    2.0048   -2.0590 H       1  UNL1        0.0000
     33 H           0.2236    1.8087   -0.7548 H       1  UNL1        0.0000
@<TRIPOS>BOND
     1     1     2    1
     2     2     3    2
     3     3     4    1
     4     4     5   ar
     5     5     6   ar
     6     6     7   ar
     7     7     8   ar
     8     8     9    1
     9     9    10   ar
    10    10    11   ar
    11    11    12   ar
    12    12    13   ar
    13    13    14   ar
    14    14    15   ar
    15    15    16   ar
    16    16    17   ar
    17    17    18   ar
    18    18    19   ar
    19    19    20   ar
    20    20    21   ar
    21    21    22   ar
    22    22    23   ar
    23     5     1    1
    24    23     9   ar
    25     8     4   ar
    26    22    11   ar
    27    21    13   ar
    28    19    14   ar
    29     1    24    1
    30     1    25    1
    31     2    26    1
    32     3    27    1
    33     6    28    1
    34    10    29    1
    35    16    30    1
    36    17    31    1
    37    18    32    1
    38    23    33    1
