@<TRIPOS>MOLECULE
*****
 41 47 0 0 0
SMALL
GASTEIGER

@<TRIPOS>ATOM
      1 SI          6.7676    0.2933   -0.5868 Si      1  UNL1        0.0000
      2 C           5.4726   -0.6893   -1.5962 C.2     1  UNL1        0.0000
      3 C           4.2229   -0.4877   -1.1231 C.2     1  UNL1        0.0000
      4 C           4.1368    0.3936    0.0054 C.ar    1  UNL1        0.0000
      5 C           5.3590    0.9440    0.4776 C.ar    1  UNL1        0.0000
      6 C           5.2381    1.7833    1.5414 C.ar    1  UNL1        0.0000
      7 S           3.5744    1.9117    1.9838 S.2     1  UNL1        0.0000
      8 C           3.0552    0.8257    0.7361 C.ar    1  UNL1        0.0000
      9 C           1.6424    0.5201    0.6072 C.ar    1  UNL1        0.0000
     10 C           0.6738    1.4558    0.1953 C.ar    1  UNL1        0.0000
     11 C          -0.7031    1.1041    0.0645 C.ar    1  UNL1        0.0000
     12 S          -1.9907    2.1257   -0.4268 S.2     1  UNL1        0.0000
     13 C          -3.1838    0.8772   -0.2835 C.ar    1  UNL1        0.0000
     14 C          -2.6164   -0.3340    0.1401 C.ar    1  UNL1        0.0000
     15 C          -3.4819   -1.4265    0.2943 C.ar    1  UNL1        0.0000
     16 N          -4.8112   -1.3331    0.0485 N.ar    1  UNL1        0.0000
     17 C          -5.3458   -0.1764   -0.3542 C.ar    1  UNL1        0.0000
     18 C          -6.7051   -0.1080   -0.5975 C.ar    1  UNL1        0.0000
     19 C          -7.2647    1.0877   -1.0154 C.ar    1  UNL1        0.0000
     20 N          -6.5580    2.2187   -1.2064 N.ar    1  UNL1        0.0000
     21 C          -5.2308    2.1445   -0.9664 C.ar    1  UNL1        0.0000
     22 C          -4.5813    0.9780   -0.5418 C.ar    1  UNL1        0.0000
     23 C          -1.2146   -0.1584    0.3235 C.ar    1  UNL1        0.0000
     24 C          -0.2488   -1.1418    0.7523 C.ar    1  UNL1        0.0000
     25 C          -0.3892   -2.4552    1.0962 C.ar    1  UNL1        0.0000
     26 N           0.8793   -2.8853    1.4349 N.ar    1  UNL1        0.0000
     27 C           1.7840   -1.8521    1.2992 C.ar    1  UNL1        0.0000
     28 C           1.0984   -0.7387    0.8618 C.ar    1  UNL1        0.0000
     29 H           7.6899   -0.6254    0.1263 H       1  UNL1        0.0000
     30 H           7.4230    1.3273   -1.4257 H       1  UNL1        0.0000
     31 H           5.7700   -1.3051   -2.4294 H       1  UNL1        0.0000
     32 H           3.3430   -0.9502   -1.5563 H       1  UNL1        0.0000
     33 H           5.9966    2.3293    2.0856 H       1  UNL1        0.0000
     34 H           0.9830    2.4740   -0.0364 H       1  UNL1        0.0000
     35 H          -3.1550   -2.4067    0.6148 H       1  UNL1        0.0000
     36 H          -7.3267   -0.9859   -0.4613 H       1  UNL1        0.0000
     37 H          -8.3302    1.1662   -1.2128 H       1  UNL1        0.0000
     38 H          -4.6949    3.0748   -1.1306 H       1  UNL1        0.0000
     39 H          -1.2181   -3.1426    1.1533 H       1  UNL1        0.0000
     40 H           1.1122   -3.8200    1.7457 H       1  UNL1        0.0000
     41 H           2.8284   -2.0123    1.5336 H       1  UNL1        0.0000
@<TRIPOS>BOND
     1     1     2    1
     2     2     3    2
     3     3     4    1
     4     4     5   ar
     5     5     6   ar
     6     6     7   ar
     7     7     8   ar
     8     8     9    1
     9     9    10   ar
    10    10    11   ar
    11    11    12   ar
    12    12    13   ar
    13    13    14   ar
    14    14    15   ar
    15    15    16   ar
    16    16    17   ar
    17    17    18   ar
    18    18    19   ar
    19    19    20   ar
    20    20    21   ar
    21    21    22   ar
    22    14    23   ar
    23    23    24   ar
    24    24    25   ar
    25    25    26   ar
    26    26    27   ar
    27    27    28   ar
    28     5     1    1
    29    28     9   ar
    30     8     4   ar
    31    23    11   ar
    32    28    24   ar
    33    22    13   ar
    34    22    17   ar
    35     1    29    1
    36     1    30    1
    37     2    31    1
    38     3    32    1
    39     6    33    1
    40    10    34    1
    41    15    35    1
    42    18    36    1
    43    19    37    1
    44    21    38    1
    45    25    39    1
    46    26    40    1
    47    27    41    1
