@<TRIPOS>MOLECULE
*****
 34 40 0 0 0
SMALL
GASTEIGER

@<TRIPOS>ATOM
      1 SI          5.8763   -1.2633    0.8873 Si      1  UNL1        0.0000
      2 C           4.1670   -2.0737    1.1106 C.2     1  UNL1        0.0000
      3 C           3.1708   -1.2456    0.7253 C.2     1  UNL1        0.0000
      4 C           3.5942    0.0395    0.2401 C.ar    1  UNL1        0.0000
      5 C           4.9999    0.2681    0.2301 C.ar    1  UNL1        0.0000
      6 C           5.3845    1.4874   -0.2312 C.ar    1  UNL1        0.0000
      7 S           3.9884    2.3946   -0.6707 S.2     1  UNL1        0.0000
      8 C           2.8844    1.1242   -0.2305 C.ar    1  UNL1        0.0000
      9 C           1.4539    1.2807   -0.3744 C.ar    1  UNL1        0.0000
     10 C           0.7495    2.3772   -0.8494 C.ar    1  UNL1        0.0000
     11 C          -0.6116    1.9963   -0.7762 C.ar    1  UNL1        0.0000
     12 S          -2.2169    2.6237   -1.1168 S.2     1  UNL1        0.0000
     13 C          -2.8967    1.1609   -0.5756 C.ar    1  UNL1        0.0000
     14 C          -4.3782    0.7421   -0.4942 C.ar    1  UNL1        0.0000
     15 O          -5.5042    1.4264   -0.8298 O.2     1  UNL1        0.0000
     16 C          -6.5557    0.5892   -0.5579 C.ar    1  UNL1        0.0000
     17 C          -6.1211   -0.6236   -0.0522 C.ar    1  UNL1        0.0000
     18 C          -4.7347   -0.4947   -0.0242 C.ar    1  UNL1        0.0000
     19 C          -3.7061   -1.3920    0.3904 C.ar    1  UNL1        0.0000
     20 N          -3.9769   -2.6062    0.8563 N.ar    1  UNL1        0.0000
     21 S          -2.4398   -3.2342    1.1931 S.2     1  UNL1        0.0000
     22 N          -1.4532   -1.9382    0.7356 N.ar    1  UNL1        0.0000
     23 C          -2.3220   -1.0236    0.3233 C.ar    1  UNL1        0.0000
     24 C          -1.9594    0.2602   -0.1650 C.ar    1  UNL1        0.0000
     25 C          -0.6634    0.7322   -0.2780 C.ar    1  UNL1        0.0000
     26 O           0.5862    0.2697   -0.0232 O.2     1  UNL1        0.0000
     27 H           6.5496   -1.0570    2.1938 H       1  UNL1        0.0000
     28 H           6.6830   -1.9790   -0.1324 H       1  UNL1        0.0000
     29 H           4.0703   -3.0737    1.5014 H       1  UNL1        0.0000
     30 H           2.1246   -1.5280    0.7772 H       1  UNL1        0.0000
     31 H           6.3753    1.9071   -0.3407 H       1  UNL1        0.0000
     32 H           1.1515    3.3168   -1.1990 H       1  UNL1        0.0000
     33 H          -7.5333    0.9980   -0.7758 H       1  UNL1        0.0000
     34 H          -6.7361   -1.4613    0.2448 H       1  UNL1        0.0000
@<TRIPOS>BOND
     1     1     2    1
     2     2     3    2
     3     3     4    1
     4     4     5   ar
     5     5     6   ar
     6     6     7   ar
     7     7     8   ar
     8     8     9    1
     9     9    10   ar
    10    10    11   ar
    11    11    12   ar
    12    12    13   ar
    13    13    14   ar
    14    14    15   ar
    15    15    16   ar
    16    16    17   ar
    17    17    18   ar
    18    18    19   ar
    19    19    20   ar
    20    20    21   ar
    21    21    22   ar
    22    22    23   ar
    23    23    24   ar
    24    24    25   ar
    25    25    26   ar
    26     5     1    1
    27    26     9   ar
    28     8     4   ar
    29    25    11   ar
    30    24    13   ar
    31    18    14   ar
    32    23    19   ar
    33     1    27    1
    34     1    28    1
    35     2    29    1
    36     3    30    1
    37     6    31    1
    38    10    32    1
    39    16    33    1
    40    17    34    1
