@<TRIPOS>MOLECULE
*****
 38 43 0 0 0
SMALL
GASTEIGER

@<TRIPOS>ATOM
      1 SI         -7.1326    0.7210    0.4442 Si      1  UNL1        0.0000
      2 C          -5.7201    1.2070    1.6393 C.2     1  UNL1        0.0000
      3 C          -4.5113    0.8577    1.1464 C.2     1  UNL1        0.0000
      4 C          -4.5416    0.2167   -0.1371 C.ar    1  UNL1        0.0000
      5 C          -5.8245    0.0233   -0.7176 C.ar    1  UNL1        0.0000
      6 C          -5.8224   -0.5986   -1.9272 C.ar    1  UNL1        0.0000
      7 S          -4.1984   -0.9627   -2.3801 S.2     1  UNL1        0.0000
      8 C          -3.5315   -0.2715   -0.9338 C.ar    1  UNL1        0.0000
      9 C          -2.0824   -0.2596   -0.7443 C.ar    1  UNL1        0.0000
     10 C          -1.4011    0.9353   -0.5457 C.ar    1  UNL1        0.0000
     11 N          -0.0719    1.0685   -0.3432 N.ar    1  UNL1        0.0000
     12 C           0.6439   -0.0939   -0.3446 C.ar    1  UNL1        0.0000
     13 C           0.0488   -1.3382   -0.5372 C.ar    1  UNL1        0.0000
     14 C          -1.3368   -1.4395   -0.7408 C.ar    1  UNL1        0.0000
     15 S           1.2088   -2.5957   -0.4810 S.2     1  UNL1        0.0000
     16 C           2.5099   -1.5062   -0.2030 C.ar    1  UNL1        0.0000
     17 C           3.8700   -1.8383   -0.0392 C.ar    1  UNL1        0.0000
     18 C           4.8126   -0.8208    0.1824 C.ar    1  UNL1        0.0000
     19 C           6.1743   -1.1214    0.3491 C.ar    1  UNL1        0.0000
     20 C           7.1095   -0.1088    0.5690 C.ar    1  UNL1        0.0000
     21 C           6.6948    1.2176    0.6249 C.ar    1  UNL1        0.0000
     22 C           5.3451    1.5312    0.4610 C.ar    1  UNL1        0.0000
     23 C           4.3940    0.5220    0.2393 C.ar    1  UNL1        0.0000
     24 C           3.0332    0.8299    0.0733 C.ar    1  UNL1        0.0000
     25 C           2.0687   -0.1856   -0.1511 C.ar    1  UNL1        0.0000
     26 H          -7.8234    1.9255   -0.0789 H       1  UNL1        0.0000
     27 H          -8.0126   -0.3081    1.0510 H       1  UNL1        0.0000
     28 H          -5.9329    1.6906    2.5791 H       1  UNL1        0.0000
     29 H          -3.5855    1.0375    1.6816 H       1  UNL1        0.0000
     30 H          -6.6483   -0.8646   -2.5730 H       1  UNL1        0.0000
     31 H          -1.9400    1.8814   -0.5494 H       1  UNL1        0.0000
     32 H          -1.8059   -2.4085   -0.8819 H       1  UNL1        0.0000
     33 H           4.1798   -2.8793   -0.0856 H       1  UNL1        0.0000
     34 H           6.5191   -2.1524    0.3085 H       1  UNL1        0.0000
     35 H           8.1599   -0.3572    0.6959 H       1  UNL1        0.0000
     36 H           7.4197    2.0091    0.7956 H       1  UNL1        0.0000
     37 H           5.0385    2.5740    0.5074 H       1  UNL1        0.0000
     38 H           2.6927    1.8629    0.1139 H       1  UNL1        0.0000
@<TRIPOS>BOND
     1     1     2    1
     2     2     3    2
     3     3     4    1
     4     4     5   ar
     5     5     6   ar
     6     6     7   ar
     7     7     8   ar
     8     8     9    1
     9     9    10   ar
    10    10    11   ar
    11    11    12   ar
    12    12    13   ar
    13    13    14   ar
    14    13    15   ar
    15    15    16   ar
    16    16    17   ar
    17    17    18   ar
    18    18    19   ar
    19    19    20   ar
    20    20    21   ar
    21    21    22   ar
    22    22    23   ar
    23    23    24   ar
    24    24    25   ar
    25     5     1    1
    26    14     9   ar
    27    25    16   ar
    28     8     4   ar
    29    25    12   ar
    30    23    18   ar
    31     1    26    1
    32     1    27    1
    33     2    28    1
    34     3    29    1
    35     6    30    1
    36    10    31    1
    37    14    32    1
    38    17    33    1
    39    19    34    1
    40    20    35    1
    41    21    36    1
    42    22    37    1
    43    24    38    1
