@<TRIPOS>MOLECULE
*****
 32 36 0 0 0
SMALL
GASTEIGER

@<TRIPOS>ATOM
      1 SI         -3.8356    2.9826   -0.3981 Si      1  UNL1        0.0000
      2 C          -5.3844    1.9244   -0.5163 C.2     1  UNL1        0.0000
      3 C          -5.1215    0.6049   -0.5205 C.2     1  UNL1        0.0000
      4 C          -3.6878    0.2816   -0.4322 C.ar    1  UNL1        0.0000
      5 C          -3.1646   -1.0069   -0.4189 C.ar    1  UNL1        0.0000
      6 C          -1.7747   -1.1986   -0.3313 C.ar    1  UNL1        0.0000
      7 C          -1.2397   -2.4855   -0.3173 C.ar    1  UNL1        0.0000
      8 C           0.1396   -2.6894   -0.2305 C.ar    1  UNL1        0.0000
      9 C           1.0300   -1.5945   -0.1546 C.ar    1  UNL1        0.0000
     10 C           2.4616   -1.5833   -0.0609 C.ar    1  UNL1        0.0000
     11 C           3.0090   -0.3178   -0.0045 C.ar    1  UNL1        0.0000
     12 S           1.7809    0.8646   -0.0656 S.2     1  UNL1        0.0000
     13 C           0.5026   -0.2993   -0.1680 C.ar    1  UNL1        0.0000
     14 C          -0.9095   -0.0708   -0.2565 C.ar    1  UNL1        0.0000
     15 C          -1.4495    1.2365   -0.2706 C.ar    1  UNL1        0.0000
     16 C          -2.8286    1.3987   -0.3580 C.ar    1  UNL1        0.0000
     17 C           4.4202   -0.0175    0.0926 C.ar    1  UNL1        0.0000
     18 N           5.3212   -0.9822    0.1355 N.ar    1  UNL1        0.0000
     19 C           6.5902   -0.4463    0.2273 C.ar    1  UNL1        0.0000
     20 C           6.6532    0.9282    0.2543 C.ar    1  UNL1        0.0000
     21 S           5.0721    1.5773    0.1617 S.2     1  UNL1        0.0000
     22 H          -3.7744    3.7413    0.8762 H       1  UNL1        0.0000
     23 H          -3.6110    3.7818   -1.6286 H       1  UNL1        0.0000
     24 H          -6.3605    2.3809   -0.5726 H       1  UNL1        0.0000
     25 H          -5.8735   -0.1704   -0.5821 H       1  UNL1        0.0000
     26 H          -3.8362   -1.8595   -0.4766 H       1  UNL1        0.0000
     27 H          -1.8909   -3.3556   -0.3739 H       1  UNL1        0.0000
     28 H           0.5299   -3.7047   -0.2215 H       1  UNL1        0.0000
     29 H           3.0691   -2.4814   -0.0358 H       1  UNL1        0.0000
     30 H          -0.8063    2.1103   -0.2145 H       1  UNL1        0.0000
     31 H           7.4440   -1.1115    0.2721 H       1  UNL1        0.0000
     32 H           7.5252    1.5623    0.3219 H       1  UNL1        0.0000
@<TRIPOS>BOND
     1     1     2    1
     2     2     3    2
     3     3     4    1
     4     4     5   ar
     5     5     6   ar
     6     6     7   ar
     7     7     8   ar
     8     8     9   ar
     9     9    10   ar
    10    10    11   ar
    11    11    12   ar
    12    12    13   ar
    13    13    14   ar
    14    14    15   ar
    15    15    16   ar
    16    11    17    1
    17    17    18   ar
    18    18    19   ar
    19    19    20   ar
    20    20    21   ar
    21    16     1    1
    22    21    17   ar
    23    16     4   ar
    24    14     6   ar
    25    13     9   ar
    26     1    22    1
    27     1    23    1
    28     2    24    1
    29     3    25    1
    30     5    26    1
    31     7    27    1
    32     8    28    1
    33    10    29    1
    34    15    30    1
    35    19    31    1
    36    20    32    1
