@<TRIPOS>MOLECULE
*****
 40 45 0 0 0
SMALL
GASTEIGER

@<TRIPOS>ATOM
      1 SI         -5.4338    0.2139    2.1685 Si      1  UNL1        0.0000
      2 C          -6.6979   -1.0016    1.4994 C.2     1  UNL1        0.0000
      3 C          -6.2314   -1.7327    0.4709 C.2     1  UNL1        0.0000
      4 C          -4.8408   -1.4217    0.0976 C.ar    1  UNL1        0.0000
      5 C          -4.1471   -2.0476   -0.9336 C.ar    1  UNL1        0.0000
      6 C          -2.8145   -1.6471   -1.1804 C.ar    1  UNL1        0.0000
      7 S          -1.7783   -2.2963   -2.4132 S.2     1  UNL1        0.0000
      8 C          -0.5027   -1.2443   -1.9223 C.ar    1  UNL1        0.0000
      9 C           0.8417   -0.9382   -2.2769 C.ar    1  UNL1        0.0000
     10 C           1.2538    0.0473   -1.3977 C.ar    1  UNL1        0.0000
     11 N           0.2068    0.3525   -0.5604 N.ar    1  UNL1        0.0000
     12 C          -0.8621   -0.4493   -0.8793 C.ar    1  UNL1        0.0000
     13 C          -2.1966   -0.6479   -0.4145 C.ar    1  UNL1        0.0000
     14 C          -2.9138   -0.0184    0.6320 C.ar    1  UNL1        0.0000
     15 C          -4.2282   -0.4179    0.8706 C.ar    1  UNL1        0.0000
     16 C           2.5368    0.7502   -1.3113 C.ar    1  UNL1        0.0000
     17 C           2.8815    1.6007   -2.3731 C.ar    1  UNL1        0.0000
     18 C           4.0650    2.3305   -2.3411 C.ar    1  UNL1        0.0000
     19 C           4.9181    2.2175   -1.2464 C.ar    1  UNL1        0.0000
     20 C           4.6083    1.3669   -0.1740 C.ar    1  UNL1        0.0000
     21 C           5.4871    1.2603    0.9172 C.ar    1  UNL1        0.0000
     22 C           5.2071    0.4100    1.9858 C.ar    1  UNL1        0.0000
     23 C           4.0461   -0.3509    1.9752 C.ar    1  UNL1        0.0000
     24 C           3.1612   -0.2545    0.8991 C.ar    1  UNL1        0.0000
     25 C           3.4092    0.6099   -0.1950 C.ar    1  UNL1        0.0000
     26 H          -5.0105   -0.1156    3.5525 H       1  UNL1        0.0000
     27 H          -5.8323    1.6256    1.9423 H       1  UNL1        0.0000
     28 H          -7.6844   -1.0671    1.9319 H       1  UNL1        0.0000
     29 H          -6.8018   -2.4874   -0.0542 H       1  UNL1        0.0000
     30 H          -4.6106   -2.8226   -1.5357 H       1  UNL1        0.0000
     31 H           1.4294   -1.3870   -3.0663 H       1  UNL1        0.0000
     32 H           0.1951    1.0443    0.1783 H       1  UNL1        0.0000
     33 H          -2.4443    0.7567    1.2304 H       1  UNL1        0.0000
     34 H           2.2166    1.7046   -3.2281 H       1  UNL1        0.0000
     35 H           4.3209    2.9895   -3.1664 H       1  UNL1        0.0000
     36 H           5.8380    2.7987   -1.2393 H       1  UNL1        0.0000
     37 H           6.4074    1.8405    0.9402 H       1  UNL1        0.0000
     38 H           5.9005    0.3369    2.8194 H       1  UNL1        0.0000
     39 H           3.8281   -1.0266    2.7981 H       1  UNL1        0.0000
     40 H           2.2725   -0.8819    0.9146 H       1  UNL1        0.0000
@<TRIPOS>BOND
     1     1     2    1
     2     2     3    2
     3     3     4    1
     4     4     5   ar
     5     5     6   ar
     6     6     7   ar
     7     7     8   ar
     8     8     9   ar
     9     9    10   ar
    10    10    11   ar
    11    11    12   ar
    12    12    13   ar
    13    13    14   ar
    14    14    15   ar
    15    10    16    1
    16    16    17   ar
    17    17    18   ar
    18    18    19   ar
    19    19    20   ar
    20    20    21   ar
    21    21    22   ar
    22    22    23   ar
    23    23    24   ar
    24    24    25   ar
    25    15     1    1
    26    25    16   ar
    27    15     4   ar
    28    25    20   ar
    29    13     6   ar
    30    12     8   ar
    31     1    26    1
    32     1    27    1
    33     2    28    1
    34     3    29    1
    35     5    30    1
    36     9    31    1
    37    11    32    1
    38    14    33    1
    39    17    34    1
    40    18    35    1
    41    19    36    1
    42    21    37    1
    43    22    38    1
    44    23    39    1
    45    24    40    1
