@<TRIPOS>MOLECULE
*****
 40 46 0 0 0
SMALL
GASTEIGER

@<TRIPOS>ATOM
      1 SI          1.6303   -0.5492    0.0453 Si      1  UNL1        0.0000
      2 C           2.5299    1.0908   -0.1051 C.2     1  UNL1        0.0000
      3 C           1.6440    2.1076   -0.1585 C.2     1  UNL1        0.0000
      4 C           0.2319    1.6945   -0.0880 C.ar    1  UNL1        0.0000
      5 C          -0.8342    2.5580   -0.1246 C.ar    1  UNL1        0.0000
      6 N          -2.1176    2.1472   -0.0578 N.ar    1  UNL1        0.0000
      7 C          -2.4392    0.8349    0.0514 C.ar    1  UNL1        0.0000
      8 C          -3.8389    0.5237    0.1138 C.ar    1  UNL1        0.0000
      9 N          -4.7491    1.5285    0.0621 N.ar    1  UNL1        0.0000
     10 C          -6.0756    1.2713    0.1184 C.ar    1  UNL1        0.0000
     11 C          -6.6113    0.0083    0.2297 C.ar    1  UNL1        0.0000
     12 C          -5.7287   -1.0553    0.2867 C.ar    1  UNL1        0.0000
     13 C          -4.3341   -0.8078    0.2293 C.ar    1  UNL1        0.0000
     14 C          -3.3130   -1.7861    0.2759 C.ar    1  UNL1        0.0000
     15 C          -3.5638   -3.1357    0.3860 C.ar    1  UNL1        0.0000
     16 S          -2.1205   -4.0511    0.4161 S.2     1  UNL1        0.0000
     17 C          -1.1560   -2.6376    0.2815 C.ar    1  UNL1        0.0000
     18 C          -1.9028   -1.4831    0.2139 C.ar    1  UNL1        0.0000
     19 C          -1.3800   -0.1508    0.0976 C.ar    1  UNL1        0.0000
     20 C          -0.0323    0.3151    0.0248 C.ar    1  UNL1        0.0000
     21 C           3.9491    1.2179   -0.1540 C.ar    1  UNL1        0.0000
     22 S           4.7245    2.8077   -0.2963 S.2     1  UNL1        0.0000
     23 C           6.3300    2.1864   -0.2934 C.ar    1  UNL1        0.0000
     24 C           6.2450    0.8522   -0.1895 C.ar    1  UNL1        0.0000
     25 O           7.2993   -0.0071   -0.1532 O.2     1  UNL1        0.0000
     26 C           6.6199   -1.2020   -0.0436 C.ar    1  UNL1        0.0000
     27 C           5.2265   -1.0663   -0.0154 C.ar    1  UNL1        0.0000
     28 C           4.9775    0.3220   -0.1142 C.ar    1  UNL1        0.0000
     29 H           1.8230   -1.4283   -1.1365 H       1  UNL1        0.0000
     30 H           1.8910   -1.2390    1.3347 H       1  UNL1        0.0000
     31 H           1.8876    3.1590   -0.2457 H       1  UNL1        0.0000
     32 H          -0.7030    3.6323   -0.2105 H       1  UNL1        0.0000
     33 H          -6.7127    2.1500    0.0688 H       1  UNL1        0.0000
     34 H          -7.6836   -0.1414    0.2708 H       1  UNL1        0.0000
     35 H          -6.1241   -2.0617    0.3746 H       1  UNL1        0.0000
     36 H          -4.5085   -3.6564    0.4519 H       1  UNL1        0.0000
     37 H          -0.0915   -2.7909    0.2638 H       1  UNL1        0.0000
     38 H           7.2163    2.7995   -0.3645 H       1  UNL1        0.0000
     39 H           7.2643   -2.0703    0.0047 H       1  UNL1        0.0000
     40 H           4.5303   -1.8870    0.0662 H       1  UNL1        0.0000
@<TRIPOS>BOND
     1     1     2    1
     2     2     3    2
     3     3     4    1
     4     4     5   ar
     5     5     6   ar
     6     6     7   ar
     7     7     8   ar
     8     8     9   ar
     9     9    10   ar
    10    10    11   ar
    11    11    12   ar
    12    12    13   ar
    13    13    14   ar
    14    14    15   ar
    15    15    16   ar
    16    16    17   ar
    17    17    18   ar
    18    18    19   ar
    19    19    20   ar
    20     2    21    1
    21    21    22   ar
    22    22    23   ar
    23    23    24   ar
    24    24    25   ar
    25    25    26   ar
    26    26    27   ar
    27    27    28   ar
    28    20     1    1
    29    28    21   ar
    30    20     4   ar
    31    28    24   ar
    32    19     7   ar
    33    13     8   ar
    34    18    14   ar
    35     1    29    1
    36     1    30    1
    37     3    31    1
    38     5    32    1
    39    10    33    1
    40    11    34    1
    41    12    35    1
    42    15    36    1
    43    17    37    1
    44    23    38    1
    45    26    39    1
    46    27    40    1
