@<TRIPOS>MOLECULE
*****
 44 51 0 0 0
SMALL
GASTEIGER

@<TRIPOS>ATOM
      1 SI         -5.8665    0.0677   -1.5367 Si      1  UNL1        0.0000
      2 C          -7.0940    0.0146   -0.1194 C.2     1  UNL1        0.0000
      3 C          -6.4999   -0.1184    1.0777 C.2     1  UNL1        0.0000
      4 C          -5.0324   -0.1877    1.0101 C.ar    1  UNL1        0.0000
      5 C          -4.2197   -0.3611    2.1101 C.ar    1  UNL1        0.0000
      6 C          -2.8296   -0.4074    1.9351 C.ar    1  UNL1        0.0000
      7 C          -2.1737   -0.2554    0.6840 C.ar    1  UNL1        0.0000
      8 C          -3.0444   -0.1679   -0.4546 C.ar    1  UNL1        0.0000
      9 C          -4.4565   -0.1043   -0.2757 C.ar    1  UNL1        0.0000
     10 C          -2.4006   -0.1861   -1.7453 C.ar    1  UNL1        0.0000
     11 N          -3.0167   -0.1248   -2.9413 N.ar    1  UNL1        0.0000
     12 S          -1.8595   -0.2333   -4.1109 S.2     1  UNL1        0.0000
     13 N          -0.5101   -0.3587   -3.1717 N.ar    1  UNL1        0.0000
     14 C          -0.9083   -0.3090   -1.8848 C.ar    1  UNL1        0.0000
     15 C          -0.0466   -0.3530   -0.7466 C.ar    1  UNL1        0.0000
     16 C           1.3743   -0.4820   -0.9830 C.ar    1  UNL1        0.0000
     17 C           2.3432   -0.4748    0.0308 C.ar    1  UNL1        0.0000
     18 C           3.7679   -0.6056   -0.2228 C.ar    1  UNL1        0.0000
     19 S           4.3818   -2.1248   -0.7632 S.2     1  UNL1        0.0000
     20 C           5.9955   -1.5464   -0.8380 C.ar    1  UNL1        0.0000
     21 C           6.0701   -0.2292   -0.4665 C.ar    1  UNL1        0.0000
     22 N           7.2393    0.4687   -0.4414 N.ar    1  UNL1        0.0000
     23 C           7.0227    1.7520   -0.0400 C.ar    1  UNL1        0.0000
     24 C           5.7766    2.2907    0.3049 C.ar    1  UNL1        0.0000
     25 N           4.5969    1.6117    0.2907 N.ar    1  UNL1        0.0000
     26 C           4.7833    0.3203   -0.1113 C.ar    1  UNL1        0.0000
     27 C           1.7754   -0.2566    1.2911 C.ar    1  UNL1        0.0000
     28 C           2.5286   -0.1392    2.4388 C.ar    1  UNL1        0.0000
     29 S           1.5676    0.2513    3.7952 S.2     1  UNL1        0.0000
     30 C           0.1358    0.2603    2.8505 C.ar    1  UNL1        0.0000
     31 C           0.3404   -0.1287    1.5435 C.ar    1  UNL1        0.0000
     32 C          -0.7017   -0.2445    0.5423 C.ar    1  UNL1        0.0000
     33 H          -5.8966    1.3926   -2.2071 H       1  UNL1        0.0000
     34 H          -6.0305   -1.1231   -2.4089 H       1  UNL1        0.0000
     35 H          -8.1548    0.0845   -0.3038 H       1  UNL1        0.0000
     36 H          -7.0283   -0.1725    2.0203 H       1  UNL1        0.0000
     37 H          -4.6430   -0.4784    3.1040 H       1  UNL1        0.0000
     38 H          -2.2631   -0.6352    2.8317 H       1  UNL1        0.0000
     39 H           1.7236   -0.5803   -2.0136 H       1  UNL1        0.0000
     40 H           6.8026   -2.1933   -1.1495 H       1  UNL1        0.0000
     41 H           7.9139    2.3723    0.0018 H       1  UNL1        0.0000
     42 H           5.6994    3.3294    0.6144 H       1  UNL1        0.0000
     43 H           3.5998   -0.2180    2.5627 H       1  UNL1        0.0000
     44 H          -0.7623    0.5838    3.3497 H       1  UNL1        0.0000
@<TRIPOS>BOND
     1     1     2    1
     2     2     3    2
     3     3     4    1
     4     4     5   ar
     5     5     6   ar
     6     6     7   ar
     7     7     8   ar
     8     8     9   ar
     9     8    10   ar
    10    10    11   ar
    11    11    12   ar
    12    12    13   ar
    13    13    14   ar
    14    14    15   ar
    15    15    16   ar
    16    16    17   ar
    17    17    18    1
    18    18    19   ar
    19    19    20   ar
    20    20    21   ar
    21    21    22   ar
    22    22    23   ar
    23    23    24   ar
    24    24    25   ar
    25    25    26   ar
    26    17    27   ar
    27    27    28   ar
    28    28    29   ar
    29    29    30   ar
    30    30    31   ar
    31    31    32   ar
    32     9     1    1
    33    14    10   ar
    34    32    15   ar
    35     9     4   ar
    36    26    18   ar
    37    31    27   ar
    38    32     7   ar
    39    26    21   ar
    40     1    33    1
    41     1    34    1
    42     2    35    1
    43     3    36    1
    44     5    37    1
    45     6    38    1
    46    16    39    1
    47    20    40    1
    48    23    41    1
    49    24    42    1
    50    28    43    1
    51    30    44    1
