@<TRIPOS>MOLECULE
*****
 44 50 0 0 0
SMALL
GASTEIGER

@<TRIPOS>ATOM
      1 SI         -5.2626   -0.1876    0.8504 Si      1  UNL1        0.0000
      2 C          -5.5832   -0.6642    2.6137 C.2     1  UNL1        0.0000
      3 C          -4.4476   -0.8597    3.2991 C.2     1  UNL1        0.0000
      4 C          -3.2217   -0.6540    2.5059 C.ar    1  UNL1        0.0000
      5 C          -1.9663   -0.8141    3.0571 C.ar    1  UNL1        0.0000
      6 C          -0.8594   -0.6039    2.2498 C.ar    1  UNL1        0.0000
      7 C          -0.9995   -0.2321    0.8862 C.ar    1  UNL1        0.0000
      8 C           0.2002   -0.0444    0.1583 C.ar    1  UNL1        0.0000
      9 N           1.5196   -0.1613    0.5472 N.ar    1  UNL1        0.0000
     10 C           2.3934    0.1104   -0.4802 C.ar    1  UNL1        0.0000
     11 C           1.5946    0.4125   -1.5661 C.ar    1  UNL1        0.0000
     12 C           0.2174    0.3196   -1.1813 C.ar    1  UNL1        0.0000
     13 C          -1.0182    0.5120   -1.8501 C.ar    1  UNL1        0.0000
     14 C          -0.9568    0.8828   -3.2157 C.ar    1  UNL1        0.0000
     15 C          -2.1130    1.0932   -3.9527 C.ar    1  UNL1        0.0000
     16 C          -3.3376    0.9355   -3.3339 C.ar    1  UNL1        0.0000
     17 C          -3.4017    0.5682   -1.9814 C.ar    1  UNL1        0.0000
     18 C          -2.2593    0.3370   -1.1674 C.ar    1  UNL1        0.0000
     19 C          -2.2657   -0.0481    0.2485 C.ar    1  UNL1        0.0000
     20 C          -3.3818   -0.2786    1.1298 C.ar    1  UNL1        0.0000
     21 C           3.8488    0.0572   -0.3303 C.ar    1  UNL1        0.0000
     22 C           4.7389    0.3385   -1.3923 C.ar    1  UNL1        0.0000
     23 C           6.1492    0.2933   -1.2712 C.ar    1  UNL1        0.0000
     24 C           6.8056   -0.0376   -0.0759 C.ar    1  UNL1        0.0000
     25 C           5.9749   -0.3314    1.0303 C.ar    1  UNL1        0.0000
     26 N           6.4050   -0.6685    2.2556 N.ar    1  UNL1        0.0000
     27 S           5.0519   -0.9088    3.1816 S.2     1  UNL1        0.0000
     28 N           3.8542   -0.5974    2.0753 N.ar    1  UNL1        0.0000
     29 C           4.4661   -0.2866    0.9134 C.ar    1  UNL1        0.0000
     30 H          -5.7475   -1.2152   -0.1051 H       1  UNL1        0.0000
     31 H          -5.7282    1.1894    0.5485 H       1  UNL1        0.0000
     32 H          -6.5854   -0.7615    3.0013 H       1  UNL1        0.0000
     33 H          -4.4057   -1.1436    4.3425 H       1  UNL1        0.0000
     34 H          -1.8377   -1.0978    4.0968 H       1  UNL1        0.0000
     35 H           0.1172   -0.7361    2.7064 H       1  UNL1        0.0000
     36 H           1.8297   -0.4165    1.4758 H       1  UNL1        0.0000
     37 H           1.9567    0.6769   -2.5500 H       1  UNL1        0.0000
     38 H          -0.0031    1.0118   -3.7200 H       1  UNL1        0.0000
     39 H          -2.0549    1.3772   -4.9991 H       1  UNL1        0.0000
     40 H          -4.2556    1.0958   -3.8939 H       1  UNL1        0.0000
     41 H          -4.4028    0.4712   -1.5920 H       1  UNL1        0.0000
     42 H           4.3329    0.6073   -2.3677 H       1  UNL1        0.0000
     43 H           6.7528    0.5270   -2.1491 H       1  UNL1        0.0000
     44 H           7.8858   -0.0681    0.0020 H       1  UNL1        0.0000
@<TRIPOS>BOND
     1     1     2    1
     2     2     3    2
     3     3     4    1
     4     4     5   ar
     5     5     6   ar
     6     6     7   ar
     7     7     8   ar
     8     8     9   ar
     9     9    10   ar
    10    10    11   ar
    11    11    12   ar
    12    12    13   ar
    13    13    14   ar
    14    14    15   ar
    15    15    16   ar
    16    16    17   ar
    17    17    18   ar
    18    18    19   ar
    19    19    20   ar
    20    10    21    1
    21    21    22   ar
    22    22    23   ar
    23    23    24   ar
    24    24    25   ar
    25    25    26   ar
    26    26    27   ar
    27    27    28   ar
    28    28    29   ar
    29    20     1    1
    30    29    21   ar
    31    20     4   ar
    32    29    25   ar
    33    19     7   ar
    34    12     8   ar
    35    18    13   ar
    36     1    30    1
    37     1    31    1
    38     2    32    1
    39     3    33    1
    40     5    34    1
    41     6    35    1
    42     9    36    1
    43    11    37    1
    44    14    38    1
    45    15    39    1
    46    16    40    1
    47    17    41    1
    48    22    42    1
    49    23    43    1
    50    24    44    1
