@<TRIPOS>MOLECULE
*****
 41 47 0 0 0
SMALL
GASTEIGER

@<TRIPOS>ATOM
      1 SI          5.8018   -0.7951   -0.0035 Si      1  UNL1        0.0000
      2 C           6.6270    0.8916    0.0687 C.2     1  UNL1        0.0000
      3 C           5.7462    1.9063    0.0664 C.2     1  UNL1        0.0000
      4 C           4.3391    1.4772    0.0082 C.ar    1  UNL1        0.0000
      5 C           3.2648    2.3590   -0.0038 C.ar    1  UNL1        0.0000
      6 C           1.9616    1.8572   -0.0604 C.ar    1  UNL1        0.0000
      7 C           1.7229    0.4643   -0.1056 C.ar    1  UNL1        0.0000
      8 C           0.3857   -0.0157   -0.1633 C.ar    1  UNL1        0.0000
      9 N          -0.8396    0.6258   -0.1894 N.ar    1  UNL1        0.0000
     10 C          -1.8844   -0.2821   -0.2392 C.ar    1  UNL1        0.0000
     11 C          -1.3278   -1.5505   -0.2589 C.ar    1  UNL1        0.0000
     12 C           0.0530   -1.3524   -0.2083 C.ar    1  UNL1        0.0000
     13 C           1.0837   -2.3334   -0.1998 C.ar    1  UNL1        0.0000
     14 N           0.8266   -3.6319   -0.2404 N.ar    1  UNL1        0.0000
     15 S           2.3600   -4.3004   -0.2076 S.2     1  UNL1        0.0000
     16 N           3.2978   -2.9169   -0.1418 N.ar    1  UNL1        0.0000
     17 C           2.4572   -1.8579   -0.1421 C.ar    1  UNL1        0.0000
     18 C           2.8162   -0.4590   -0.0936 C.ar    1  UNL1        0.0000
     19 C           4.1256    0.0751   -0.0361 C.ar    1  UNL1        0.0000
     20 C          -3.2698    0.1439   -0.2771 C.ar    1  UNL1        0.0000
     21 C          -3.7830    1.0398   -1.2457 C.ar    1  UNL1        0.0000
     22 C          -5.1504    1.4640   -1.2948 C.ar    1  UNL1        0.0000
     23 C          -6.1405    1.0414   -0.3820 C.ar    1  UNL1        0.0000
     24 C          -5.6287    0.1627    0.5734 C.ar    1  UNL1        0.0000
     25 C          -6.4071   -0.3732    1.5692 C.ar    1  UNL1        0.0000
     26 S          -5.4855   -1.3977    2.5954 S.2     1  UNL1        0.0000
     27 C          -4.0417   -1.1202    1.7020 C.ar    1  UNL1        0.0000
     28 C          -4.2534   -0.2774    0.6349 C.ar    1  UNL1        0.0000
     29 H           6.1385   -1.4847   -1.2748 H       1  UNL1        0.0000
     30 H           6.0548   -1.5520    1.2489 H       1  UNL1        0.0000
     31 H           7.7020    0.9767    0.1068 H       1  UNL1        0.0000
     32 H           6.0189    2.9526    0.1034 H       1  UNL1        0.0000
     33 H           3.4296    3.4324    0.0309 H       1  UNL1        0.0000
     34 H           1.1420    2.5702   -0.0676 H       1  UNL1        0.0000
     35 H          -0.9656    1.6271   -0.1553 H       1  UNL1        0.0000
     36 H          -1.8664   -2.4886   -0.3089 H       1  UNL1        0.0000
     37 H          -3.1129    1.4195   -2.0177 H       1  UNL1        0.0000
     38 H          -5.4432    2.1503   -2.0905 H       1  UNL1        0.0000
     39 H          -7.1688    1.3737   -0.4380 H       1  UNL1        0.0000
     40 H          -7.4604   -0.2244    1.7627 H       1  UNL1        0.0000
     41 H          -3.1261   -1.5974    2.0222 H       1  UNL1        0.0000
@<TRIPOS>BOND
     1     1     2    1
     2     2     3    2
     3     3     4    1
     4     4     5   ar
     5     5     6   ar
     6     6     7   ar
     7     7     8   ar
     8     8     9   ar
     9     9    10   ar
    10    10    11   ar
    11    11    12   ar
    12    12    13   ar
    13    13    14   ar
    14    14    15   ar
    15    15    16   ar
    16    16    17   ar
    17    17    18   ar
    18    18    19   ar
    19    10    20    1
    20    20    21   ar
    21    21    22   ar
    22    22    23   ar
    23    23    24   ar
    24    24    25   ar
    25    25    26   ar
    26    26    27   ar
    27    27    28   ar
    28    19     1    1
    29    28    20   ar
    30    19     4   ar
    31    28    24   ar
    32    18     7   ar
    33    12     8   ar
    34    17    13   ar
    35     1    29    1
    36     1    30    1
    37     2    31    1
    38     3    32    1
    39     5    33    1
    40     6    34    1
    41     9    35    1
    42    11    36    1
    43    21    37    1
    44    22    38    1
    45    23    39    1
    46    25    40    1
    47    27    41    1
