@<TRIPOS>MOLECULE
*****
 41 46 0 0 0
SMALL
GASTEIGER

@<TRIPOS>ATOM
      1 SI         -5.3089   -0.1510    1.7387 Si      1  UNL1        0.0000
      2 C          -6.5815   -0.2286    0.3862 C.2     1  UNL1        0.0000
      3 C          -6.0255   -0.2373   -0.8350 C.2     1  UNL1        0.0000
      4 C          -4.5536   -0.1838   -0.8210 C.ar    1  UNL1        0.0000
      5 C          -3.7962   -0.1832   -1.9721 C.ar    1  UNL1        0.0000
      6 C          -2.4026   -0.1304   -1.8732 C.ar    1  UNL1        0.0000
      7 C          -1.6879   -0.0758   -0.6460 C.ar    1  UNL1        0.0000
      8 C          -0.2088   -0.0219   -0.6488 C.ar    1  UNL1        0.0000
      9 C           0.5842   -0.0197   -1.8086 C.ar    1  UNL1        0.0000
     10 N           1.9438    0.0284   -1.8815 N.ar    1  UNL1        0.0000
     11 C           2.6593    0.0810   -0.7377 C.ar    1  UNL1        0.0000
     12 C           2.0016    0.0850    0.4840 C.ar    1  UNL1        0.0000
     13 C           0.5799    0.0341    0.5298 C.ar    1  UNL1        0.0000
     14 C          -0.2079    0.0325    1.7073 C.ar    1  UNL1        0.0000
     15 C           0.3425    0.0816    2.9703 C.ar    1  UNL1        0.0000
     16 S          -0.8481    0.0662    4.1935 S.2     1  UNL1        0.0000
     17 C          -2.1095   -0.0064    3.0347 C.ar    1  UNL1        0.0000
     18 C          -1.6568   -0.0197    1.7337 C.ar    1  UNL1        0.0000
     19 C          -2.4923   -0.0770    0.5623 C.ar    1  UNL1        0.0000
     20 C          -3.9219   -0.1314    0.4478 C.ar    1  UNL1        0.0000
     21 C           4.1377    0.1315   -0.9000 C.ar    1  UNL1        0.0000
     22 C           4.7178    0.1227   -2.1865 C.ar    1  UNL1        0.0000
     23 C           6.1030    0.1692   -2.3794 C.ar    1  UNL1        0.0000
     24 C           6.9550    0.2263   -1.2839 C.ar    1  UNL1        0.0000
     25 C           6.4205    0.2368   -0.0008 C.ar    1  UNL1        0.0000
     26 C           5.0323    0.1900    0.1869 C.ar    1  UNL1        0.0000
     27 H          -5.2884   -1.3793    2.5714 H       1  UNL1        0.0000
     28 H          -5.3783    1.1133    2.5128 H       1  UNL1        0.0000
     29 H          -7.6376   -0.2616    0.6054 H       1  UNL1        0.0000
     30 H          -6.5834   -0.2792   -1.7613 H       1  UNL1        0.0000
     31 H          -4.2661   -0.2231   -2.9510 H       1  UNL1        0.0000
     32 H          -1.8803   -0.1337   -2.8265 H       1  UNL1        0.0000
     33 H           0.1444   -0.0586   -2.8002 H       1  UNL1        0.0000
     34 H           2.5645    0.1269    1.4058 H       1  UNL1        0.0000
     35 H           1.3794    0.1262    3.2688 H       1  UNL1        0.0000
     36 H          -3.1063   -0.0338    3.4346 H       1  UNL1        0.0000
     37 H           4.0796    0.0785   -3.0685 H       1  UNL1        0.0000
     38 H           6.5080    0.1604   -3.3879 H       1  UNL1        0.0000
     39 H           8.0310    0.2625   -1.4296 H       1  UNL1        0.0000
     40 H           7.0818    0.2814    0.8609 H       1  UNL1        0.0000
     41 H           4.6760    0.2011    1.2123 H       1  UNL1        0.0000
@<TRIPOS>BOND
     1     1     2    1
     2     2     3    2
     3     3     4    1
     4     4     5   ar
     5     5     6   ar
     6     6     7   ar
     7     7     8   ar
     8     8     9   ar
     9     9    10   ar
    10    10    11   ar
    11    11    12   ar
    12    12    13   ar
    13    13    14   ar
    14    14    15   ar
    15    15    16   ar
    16    16    17   ar
    17    17    18   ar
    18    18    19   ar
    19    19    20   ar
    20    11    21    1
    21    21    22   ar
    22    22    23   ar
    23    23    24   ar
    24    24    25   ar
    25    25    26   ar
    26    20     1    1
    27    26    21   ar
    28    20     4   ar
    29    19     7   ar
    30    13     8   ar
    31    18    14   ar
    32     1    27    1
    33     1    28    1
    34     2    29    1
    35     3    30    1
    36     5    31    1
    37     6    32    1
    38     9    33    1
    39    12    34    1
    40    15    35    1
    41    17    36    1
    42    22    37    1
    43    23    38    1
    44    24    39    1
    45    25    40    1
    46    26    41    1
