@<TRIPOS>MOLECULE
*****
 47 54 0 0 0
SMALL
GASTEIGER

@<TRIPOS>ATOM
      1 SI         -5.5493   -1.2214    0.5797 Si      1  UNL1        0.0000
      2 C          -6.7223    0.1819    0.2459 C.2     1  UNL1        0.0000
      3 C          -6.0848    1.2847   -0.1726 C.2     1  UNL1        0.0000
      4 C          -4.6259    1.1276   -0.2520 C.ar    1  UNL1        0.0000
      5 C          -3.7677    2.1411   -0.5570 C.ar    1  UNL1        0.0000
      6 N          -2.4352    1.9786   -0.5258 N.ar    1  UNL1        0.0000
      7 C          -1.8637    0.7886   -0.2190 C.ar    1  UNL1        0.0000
      8 C          -2.6428   -0.3777    0.0114 C.ar    1  UNL1        0.0000
      9 C          -4.0667   -0.1411    0.0433 C.ar    1  UNL1        0.0000
     10 C          -1.9458   -1.6399    0.2105 C.ar    1  UNL1        0.0000
     11 C          -2.6042   -2.9007    0.2020 C.ar    1  UNL1        0.0000
     12 C          -1.9797   -4.1184    0.4704 C.ar    1  UNL1        0.0000
     13 C          -0.6351   -4.1310    0.7402 C.ar    1  UNL1        0.0000
     14 C           0.0704   -2.9327    0.6833 C.ar    1  UNL1        0.0000
     15 C          -0.5307   -1.6721    0.3865 C.ar    1  UNL1        0.0000
     16 C           0.2445   -0.4774    0.2432 C.ar    1  UNL1        0.0000
     17 C           1.6947   -0.4835    0.4060 C.ar    1  UNL1        0.0000
     18 C           2.5825    0.6034    0.2494 C.ar    1  UNL1        0.0000
     19 C           4.0189    0.4944    0.3997 C.ar    1  UNL1        0.0000
     20 S           4.7201    0.0731    1.9410 S.2     1  UNL1        0.0000
     21 C           6.3497    0.1408    1.3483 C.ar    1  UNL1        0.0000
     22 C           6.2936    0.4637    0.0440 C.ar    1  UNL1        0.0000
     23 O           7.3498    0.6147   -0.7996 O.2     1  UNL1        0.0000
     24 C           6.6720    0.9296   -1.9643 C.ar    1  UNL1        0.0000
     25 C           5.2781    0.9659   -1.8264 C.ar    1  UNL1        0.0000
     26 C           5.0379    0.6551   -0.4761 C.ar    1  UNL1        0.0000
     27 C           1.9097    1.7695   -0.1030 C.ar    1  UNL1        0.0000
     28 C           2.5466    2.9765   -0.2910 C.ar    1  UNL1        0.0000
     29 S           1.4505    4.2130   -0.7205 S.2     1  UNL1        0.0000
     30 C           0.1172    3.1386   -0.6269 C.ar    1  UNL1        0.0000
     31 C           0.4711    1.8513   -0.2763 C.ar    1  UNL1        0.0000
     32 C          -0.4448    0.7361   -0.1026 C.ar    1  UNL1        0.0000
     33 H          -5.8021   -2.3534   -0.3468 H       1  UNL1        0.0000
     34 H          -5.4965   -1.5829    2.0171 H       1  UNL1        0.0000
     35 H          -7.7872    0.0735    0.3843 H       1  UNL1        0.0000
     36 H          -6.5731    2.2183   -0.4207 H       1  UNL1        0.0000
     37 H          -4.1107    3.1400   -0.8039 H       1  UNL1        0.0000
     38 H          -3.6431   -2.9873   -0.0811 H       1  UNL1        0.0000
     39 H          -2.5494   -5.0434    0.4537 H       1  UNL1        0.0000
     40 H          -0.1213   -5.0626    0.9596 H       1  UNL1        0.0000
     41 H           1.1353   -3.0283    0.8703 H       1  UNL1        0.0000
     42 H           2.1921   -1.4166    0.6637 H       1  UNL1        0.0000
     43 H           7.2191   -0.0526    1.9592 H       1  UNL1        0.0000
     44 H           7.3200    1.1015   -2.8141 H       1  UNL1        0.0000
     45 H           4.5650    1.1884   -2.6076 H       1  UNL1        0.0000
     46 H           3.5969    3.2173   -0.2025 H       1  UNL1        0.0000
     47 H          -0.8535    3.5558   -0.8426 H       1  UNL1        0.0000
@<TRIPOS>BOND
     1     1     2    1
     2     2     3    2
     3     3     4    1
     4     4     5   ar
     5     5     6   ar
     6     6     7   ar
     7     7     8   ar
     8     8     9   ar
     9     8    10   ar
    10    10    11   ar
    11    11    12   ar
    12    12    13   ar
    13    13    14   ar
    14    14    15   ar
    15    15    16   ar
    16    16    17   ar
    17    17    18   ar
    18    18    19    1
    19    19    20   ar
    20    20    21   ar
    21    21    22   ar
    22    22    23   ar
    23    23    24   ar
    24    24    25   ar
    25    25    26   ar
    26    18    27   ar
    27    27    28   ar
    28    28    29   ar
    29    29    30   ar
    30    30    31   ar
    31    31    32   ar
    32     9     1    1
    33    15    10   ar
    34    32    16   ar
    35     9     4   ar
    36    26    19   ar
    37    31    27   ar
    38    32     7   ar
    39    26    22   ar
    40     1    33    1
    41     1    34    1
    42     2    35    1
    43     3    36    1
    44     5    37    1
    45    11    38    1
    46    12    39    1
    47    13    40    1
    48    14    41    1
    49    17    42    1
    50    21    43    1
    51    24    44    1
    52    25    45    1
    53    28    46    1
    54    30    47    1
