@<TRIPOS>MOLECULE
*****
 39 45 0 0 0
SMALL
GASTEIGER

@<TRIPOS>ATOM
      1 SI          3.7424   -0.9180   -2.3898 Si      1  UNL1        0.0000
      2 C           5.6622   -0.9583   -2.3893 C.2     1  UNL1        0.0000
      3 C           6.1652   -0.4413   -1.2467 C.2     1  UNL1        0.0000
      4 C           5.1835    0.0114   -0.3097 C.ar    1  UNL1        0.0000
      5 C           5.3237    0.5715    0.9311 C.ar    1  UNL1        0.0000
      6 S           3.7764    0.9132    1.6237 S.2     1  UNL1        0.0000
      7 C           2.9213    0.3159    0.2447 C.ar    1  UNL1        0.0000
      8 C           3.8203   -0.1258   -0.6812 C.ar    1  UNL1        0.0000
      9 C           1.4738    0.3423    0.2277 C.ar    1  UNL1        0.0000
     10 C           0.6635   -0.5391    0.9855 C.ar    1  UNL1        0.0000
     11 C          -0.7539   -0.4757    0.8973 C.ar    1  UNL1        0.0000
     12 N          -1.7437   -1.2241    1.5333 N.ar    1  UNL1        0.0000
     13 C          -2.9598   -0.7787    1.1117 C.ar    1  UNL1        0.0000
     14 C          -2.7912    0.2550    0.2074 C.ar    1  UNL1        0.0000
     15 SI         -4.4886    0.8494   -0.3510 Si      1  UNL1        0.0000
     16 C          -5.2911   -0.4472    0.7689 C.ar    1  UNL1        0.0000
     17 C          -6.5202   -0.9446    1.1785 C.ar    1  UNL1        0.0000
     18 C          -6.1970   -1.9551    2.0725 C.ar    1  UNL1        0.0000
     19 O          -4.8388   -2.0896    2.2203 O.2     1  UNL1        0.0000
     20 C          -4.2939   -1.1540    1.4116 C.ar    1  UNL1        0.0000
     21 C          -1.4404    0.4321    0.0828 C.ar    1  UNL1        0.0000
     22 C          -0.6555    1.3275   -0.6831 C.ar    1  UNL1        0.0000
     23 C          -0.9931    2.3153   -1.5516 C.ar    1  UNL1        0.0000
     24 O           0.1749    2.8774   -2.0067 O.2     1  UNL1        0.0000
     25 C           1.2167    2.2177   -1.3989 C.ar    1  UNL1        0.0000
     26 C           0.7406    1.2297   -0.5662 C.ar    1  UNL1        0.0000
     27 H           3.2469   -0.0138   -3.4572 H       1  UNL1        0.0000
     28 H           3.1952   -2.2976   -2.4023 H       1  UNL1        0.0000
     29 H           6.2049   -1.3581   -3.2305 H       1  UNL1        0.0000
     30 H           7.2278   -0.3711   -1.0448 H       1  UNL1        0.0000
     31 H           6.2268    0.7992    1.4794 H       1  UNL1        0.0000
     32 H           1.1320   -1.2739    1.6370 H       1  UNL1        0.0000
     33 H          -1.5843   -1.9696    2.1971 H       1  UNL1        0.0000
     34 H          -4.7479    0.6039   -1.7933 H       1  UNL1        0.0000
     35 H          -4.7904    2.2415    0.0707 H       1  UNL1        0.0000
     36 H          -7.5171   -0.6420    0.8912 H       1  UNL1        0.0000
     37 H          -6.7886   -2.6417    2.6624 H       1  UNL1        0.0000
     38 H          -1.9044    2.7407   -1.9432 H       1  UNL1        0.0000
     39 H           2.2017    2.5756   -1.6652 H       1  UNL1        0.0000
@<TRIPOS>BOND
     1     1     2    1
     2     2     3    2
     3     3     4    1
     4     4     5   ar
     5     5     6   ar
     6     6     7   ar
     7     7     8   ar
     8     7     9    1
     9     9    10   ar
    10    10    11   ar
    11    11    12   ar
    12    12    13   ar
    13    13    14   ar
    14    14    15    1
    15    15    16    1
    16    16    17   ar
    17    17    18   ar
    18    18    19   ar
    19    19    20   ar
    20    14    21   ar
    21    21    22   ar
    22    22    23   ar
    23    23    24   ar
    24    24    25   ar
    25    25    26   ar
    26     8     1    1
    27    26     9   ar
    28     8     4   ar
    29    21    11   ar
    30    26    22   ar
    31    13    20    1
    32    20    16   ar
    33     1    27    1
    34     1    28    1
    35     2    29    1
    36     3    30    1
    37     5    31    1
    38    10    32    1
    39    12    33    1
    40    15    34    1
    41    15    35    1
    42    17    36    1
    43    18    37    1
    44    23    38    1
    45    25    39    1
