@<TRIPOS>MOLECULE
*****
 41 47 0 0 0
SMALL
GASTEIGER

@<TRIPOS>ATOM
      1 SI          5.1871   -0.1849   -1.4424 Si      1  UNL1        0.0000
      2 C           6.9559   -0.1623   -0.7372 C.2     1  UNL1        0.0000
      3 C           6.9406   -0.0660    0.6093 C.2     1  UNL1        0.0000
      4 C           5.6350   -0.0038    1.1930 C.ar    1  UNL1        0.0000
      5 C           5.2641    0.0958    2.5047 C.ar    1  UNL1        0.0000
      6 S           3.5485    0.1328    2.6468 S.2     1  UNL1        0.0000
      7 C           3.2918    0.0141    0.9293 C.ar    1  UNL1        0.0000
      8 C           4.5125   -0.0489    0.3143 C.ar    1  UNL1        0.0000
      9 C           1.9474   -0.0024    0.4042 C.ar    1  UNL1        0.0000
     10 C           1.5081   -0.0919   -0.9206 C.ar    1  UNL1        0.0000
     11 C           0.1221   -0.0641   -0.8472 C.ar    1  UNL1        0.0000
     12 C          -0.9152   -0.1177   -1.8114 C.ar    1  UNL1        0.0000
     13 C          -0.7900   -0.2186   -3.1681 C.ar    1  UNL1        0.0000
     14 N          -2.0864   -0.2337   -3.6613 N.ar    1  UNL1        0.0000
     15 C          -3.0072   -0.1434   -2.6261 C.ar    1  UNL1        0.0000
     16 C          -2.2753   -0.0712   -1.4738 C.ar    1  UNL1        0.0000
     17 C          -2.7344    0.0344   -0.1254 C.ar    1  UNL1        0.0000
     18 C          -4.0015    0.0980    0.4689 C.ar    1  UNL1        0.0000
     19 C          -5.3410    0.0878    0.0337 C.ar    1  UNL1        0.0000
     20 C          -6.3736    0.1730    0.9754 C.ar    1  UNL1        0.0000
     21 C          -6.0914    0.2675    2.3359 C.ar    1  UNL1        0.0000
     22 C          -4.7731    0.2802    2.7996 C.ar    1  UNL1        0.0000
     23 C          -3.7457    0.1946    1.8513 C.ar    1  UNL1        0.0000
     24 N          -2.3695    0.1862    2.0394 N.ar    1  UNL1        0.0000
     25 C          -1.7547    0.0884    0.8322 C.ar    1  UNL1        0.0000
     26 C          -0.2657    0.0372    0.4579 C.ar    1  UNL1        0.0000
     27 O           0.8371    0.0765    1.2417 O.2     1  UNL1        0.0000
     28 H           4.8849   -1.4789   -2.1027 H       1  UNL1        0.0000
     29 H           4.9241    1.0110   -2.2804 H       1  UNL1        0.0000
     30 H           7.8170   -0.2220   -1.3831 H       1  UNL1        0.0000
     31 H           7.8411   -0.0371    1.2122 H       1  UNL1        0.0000
     32 H           5.8859    0.1491    3.3872 H       1  UNL1        0.0000
     33 H           2.1151   -0.1664   -1.8073 H       1  UNL1        0.0000
     34 H           0.0590   -0.2808   -3.8341 H       1  UNL1        0.0000
     35 H          -2.3294   -0.3011   -4.6410 H       1  UNL1        0.0000
     36 H          -4.0666   -0.1416   -2.8352 H       1  UNL1        0.0000
     37 H          -5.5805    0.0148   -1.0215 H       1  UNL1        0.0000
     38 H          -7.4072    0.1650    0.6382 H       1  UNL1        0.0000
     39 H          -6.9091    0.3327    3.0501 H       1  UNL1        0.0000
     40 H          -4.5593    0.3540    3.8611 H       1  UNL1        0.0000
     41 H          -1.9003    0.2437    2.9322 H       1  UNL1        0.0000
@<TRIPOS>BOND
     1     1     2    1
     2     2     3    2
     3     3     4    1
     4     4     5   ar
     5     5     6   ar
     6     6     7   ar
     7     7     8   ar
     8     7     9    1
     9     9    10   ar
    10    10    11   ar
    11    11    12   ar
    12    12    13   ar
    13    13    14   ar
    14    14    15   ar
    15    15    16   ar
    16    16    17   ar
    17    17    18   ar
    18    18    19   ar
    19    19    20   ar
    20    20    21   ar
    21    21    22   ar
    22    22    23   ar
    23    23    24   ar
    24    24    25   ar
    25    25    26   ar
    26    26    27   ar
    27     8     1    1
    28    27     9   ar
    29     8     4   ar
    30    26    11   ar
    31    16    12   ar
    32    25    17   ar
    33    23    18   ar
    34     1    28    1
    35     1    29    1
    36     2    30    1
    37     3    31    1
    38     5    32    1
    39    10    33    1
    40    13    34    1
    41    14    35    1
    42    15    36    1
    43    19    37    1
    44    20    38    1
    45    21    39    1
    46    22    40    1
    47    24    41    1
