@<TRIPOS>MOLECULE
*****
 47 54 0 0 0
SMALL
GASTEIGER

@<TRIPOS>ATOM
      1 SI         -5.4099   -1.8184    1.9256 Si      1  UNL1        0.0000
      2 C          -7.2676   -2.2786    1.6981 C.2     1  UNL1        0.0000
      3 C          -7.5763   -2.4761    0.3937 C.2     1  UNL1        0.0000
      4 C          -6.4939   -2.2757   -0.5142 C.ar    1  UNL1        0.0000
      5 C          -6.4478   -2.3542   -1.8811 C.ar    1  UNL1        0.0000
      6 S          -4.8674   -1.9656   -2.4561 S.2     1  UNL1        0.0000
      7 C          -4.2372   -1.6828   -0.8545 C.ar    1  UNL1        0.0000
      8 C          -5.2395   -1.9107    0.0460 C.ar    1  UNL1        0.0000
      9 C          -2.8415   -1.2869   -0.6405 C.ar    1  UNL1        0.0000
     10 C          -2.1642   -0.4113   -1.4879 C.ar    1  UNL1        0.0000
     11 C          -0.8307   -0.0636   -1.1785 C.ar    1  UNL1        0.0000
     12 C           0.0500    0.8018   -1.8892 C.ar    1  UNL1        0.0000
     13 C          -0.3164    1.4514   -3.0526 C.ar    1  UNL1        0.0000
     14 S           0.9886    2.3343   -3.7559 S.2     1  UNL1        0.0000
     15 C           2.0659    1.8752   -2.4899 C.ar    1  UNL1        0.0000
     16 C           1.3977    1.1385   -1.5523 C.ar    1  UNL1        0.0000
     17 C           1.9349    0.5771   -0.3410 C.ar    1  UNL1        0.0000
     18 C           1.1171   -0.3315    0.3059 C.ar    1  UNL1        0.0000
     19 O           1.8379   -0.9025    1.3189 O.2     1  UNL1        0.0000
     20 C           3.0683   -0.3170    1.3176 C.ar    1  UNL1        0.0000
     21 C           4.1002   -0.7037    2.1688 C.ar    1  UNL1        0.0000
     22 C           5.2861    0.0243    2.0891 C.ar    1  UNL1        0.0000
     23 C           5.4011    1.1476    1.2635 C.ar    1  UNL1        0.0000
     24 C           6.5751    1.9158    1.2909 C.ar    1  UNL1        0.0000
     25 C           6.6784    3.0982    0.5562 C.ar    1  UNL1        0.0000
     26 C           5.6018    3.5380   -0.2060 C.ar    1  UNL1        0.0000
     27 C           4.4316    2.7770   -0.2642 C.ar    1  UNL1        0.0000
     28 C           4.3199    1.5463    0.4240 C.ar    1  UNL1        0.0000
     29 C           3.1491    0.7193    0.3744 C.ar    1  UNL1        0.0000
     30 C          -0.2248   -0.6400   -0.0366 C.ar    1  UNL1        0.0000
     31 C          -0.9905   -1.5026    0.7458 C.ar    1  UNL1        0.0000
     32 N          -2.2816   -1.8155    0.4802 N.ar    1  UNL1        0.0000
     33 H          -4.7251   -2.9013    2.6795 H       1  UNL1        0.0000
     34 H          -5.2997   -0.4381    2.4803 H       1  UNL1        0.0000
     35 H          -7.9234   -2.3462    2.5541 H       1  UNL1        0.0000
     36 H          -8.5711   -2.7423    0.0508 H       1  UNL1        0.0000
     37 H          -7.2369   -2.6051   -2.5823 H       1  UNL1        0.0000
     38 H          -2.6565    0.0014   -2.3557 H       1  UNL1        0.0000
     39 H          -1.2661    1.4464   -3.5705 H       1  UNL1        0.0000
     40 H           3.1035    2.1578   -2.5616 H       1  UNL1        0.0000
     41 H           3.9818   -1.5367    2.8556 H       1  UNL1        0.0000
     42 H           6.1112   -0.2685    2.7360 H       1  UNL1        0.0000
     43 H           7.4157    1.6141    1.9124 H       1  UNL1        0.0000
     44 H           7.5882    3.6915    0.6051 H       1  UNL1        0.0000
     45 H           5.6621    4.4856   -0.7392 H       1  UNL1        0.0000
     46 H           3.5887    3.1984   -0.8019 H       1  UNL1        0.0000
     47 H          -0.5865   -1.9649    1.6383 H       1  UNL1        0.0000
@<TRIPOS>BOND
     1     1     2    1
     2     2     3    2
     3     3     4    1
     4     4     5   ar
     5     5     6   ar
     6     6     7   ar
     7     7     8   ar
     8     7     9    1
     9     9    10   ar
    10    10    11   ar
    11    11    12   ar
    12    12    13   ar
    13    13    14   ar
    14    14    15   ar
    15    15    16   ar
    16    16    17   ar
    17    17    18   ar
    18    18    19   ar
    19    19    20   ar
    20    20    21   ar
    21    21    22   ar
    22    22    23   ar
    23    23    24   ar
    24    24    25   ar
    25    25    26   ar
    26    26    27   ar
    27    27    28   ar
    28    28    29   ar
    29    18    30   ar
    30    30    31   ar
    31    31    32   ar
    32     8     1    1
    33    32     9   ar
    34     8     4   ar
    35    30    11   ar
    36    16    12   ar
    37    29    17   ar
    38    29    20   ar
    39    28    23   ar
    40     1    33    1
    41     1    34    1
    42     2    35    1
    43     3    36    1
    44     5    37    1
    45    10    38    1
    46    13    39    1
    47    15    40    1
    48    21    41    1
    49    22    42    1
    50    24    43    1
    51    25    44    1
    52    26    45    1
    53    27    46    1
    54    31    47    1
