@<TRIPOS>MOLECULE
*****
 40 46 0 0 0
SMALL
GASTEIGER

@<TRIPOS>ATOM
      1 SI         -4.4144   -1.0790   -2.1309 Si      1  UNL1        0.0000
      2 C          -6.3253   -0.8271   -2.1051 C.2     1  UNL1        0.0000
      3 C          -6.6942    0.0392   -1.1347 C.2     1  UNL1        0.0000
      4 C          -5.6152    0.5636   -0.3556 C.ar    1  UNL1        0.0000
      5 C          -5.6181    1.4334    0.7013 C.ar    1  UNL1        0.0000
      6 S          -4.0093    1.7177    1.2535 S.2     1  UNL1        0.0000
      7 C          -3.2966    0.6318    0.0951 C.ar    1  UNL1        0.0000
      8 C          -4.3032    0.1279   -0.6815 C.ar    1  UNL1        0.0000
      9 C          -1.8444    0.4058    0.0480 C.ar    1  UNL1        0.0000
     10 C          -1.0232    0.4957    1.1710 C.ar    1  UNL1        0.0000
     11 C           0.3611    0.2615    1.0265 C.ar    1  UNL1        0.0000
     12 C           1.3569    0.3011    2.0539 C.ar    1  UNL1        0.0000
     13 C           1.0948    0.5992    3.3759 C.ar    1  UNL1        0.0000
     14 S           2.5191    0.5653    4.3595 S.2     1  UNL1        0.0000
     15 C           3.5257    0.1593    3.0224 C.ar    1  UNL1        0.0000
     16 C           2.7512    0.0615    1.9052 C.ar    1  UNL1        0.0000
     17 C           3.1644   -0.2394    0.5880 C.ar    1  UNL1        0.0000
     18 C           4.4614   -0.4674    0.1450 C.ar    1  UNL1        0.0000
     19 N           5.7768   -0.5611    0.4979 N.ar    1  UNL1        0.0000
     20 C           6.5042   -0.7775   -0.6497 C.ar    1  UNL1        0.0000
     21 C           5.6582   -0.8658   -1.7410 C.ar    1  UNL1        0.0000
     22 C           4.3621   -0.6574   -1.2051 C.ar    1  UNL1        0.0000
     23 N           3.0370   -0.5663   -1.5824 N.ar    1  UNL1        0.0000
     24 C           2.2693   -0.2881   -0.4644 C.ar    1  UNL1        0.0000
     25 C           0.8741   -0.0561   -0.2659 C.ar    1  UNL1        0.0000
     26 C          -0.0419   -0.1329   -1.3132 C.ar    1  UNL1        0.0000
     27 N          -1.3729    0.0827   -1.1826 N.ar    1  UNL1        0.0000
     28 H          -3.8787   -0.5831   -3.4252 H       1  UNL1        0.0000
     29 H          -4.0897   -2.4895   -1.7738 H       1  UNL1        0.0000
     30 H          -6.9533   -1.3399   -2.8151 H       1  UNL1        0.0000
     31 H          -7.7246    0.3233   -0.9556 H       1  UNL1        0.0000
     32 H          -6.4535    1.9239    1.1749 H       1  UNL1        0.0000
     33 H          -1.4441    0.7212    2.1431 H       1  UNL1        0.0000
     34 H           0.1555    0.8429    3.8481 H       1  UNL1        0.0000
     35 H           4.5878    0.0268    3.1596 H       1  UNL1        0.0000
     36 H           6.1224   -0.4580    1.4431 H       1  UNL1        0.0000
     37 H           7.5825   -0.8558   -0.5938 H       1  UNL1        0.0000
     38 H           5.9462   -1.0300   -2.7714 H       1  UNL1        0.0000
     39 H           2.7281   -0.6591   -2.5432 H       1  UNL1        0.0000
     40 H           0.2639   -0.3983   -2.3216 H       1  UNL1        0.0000
@<TRIPOS>BOND
     1     1     2    1
     2     2     3    2
     3     3     4    1
     4     4     5   ar
     5     5     6   ar
     6     6     7   ar
     7     7     8   ar
     8     7     9    1
     9     9    10   ar
    10    10    11   ar
    11    11    12   ar
    12    12    13   ar
    13    13    14   ar
    14    14    15   ar
    15    15    16   ar
    16    16    17   ar
    17    17    18   ar
    18    18    19   ar
    19    19    20   ar
    20    20    21   ar
    21    21    22   ar
    22    22    23   ar
    23    23    24   ar
    24    24    25   ar
    25    25    26   ar
    26    26    27   ar
    27     8     1    1
    28    27     9   ar
    29     8     4   ar
    30    25    11   ar
    31    16    12   ar
    32    24    17   ar
    33    22    18   ar
    34     1    28    1
    35     1    29    1
    36     2    30    1
    37     3    31    1
    38     5    32    1
    39    10    33    1
    40    13    34    1
    41    15    35    1
    42    19    36    1
    43    20    37    1
    44    21    38    1
    45    23    39    1
    46    26    40    1
