@<TRIPOS>MOLECULE
*****
 42 48 0 0 0
SMALL
GASTEIGER

@<TRIPOS>ATOM
      1 SI          5.4205    1.1529    1.0259 Si      1  UNL1        0.0000
      2 C           7.3017    0.8174    0.8953 C.2     1  UNL1        0.0000
      3 C           7.5584   -0.2266    0.0770 C.2     1  UNL1        0.0000
      4 C           6.3997   -0.8358   -0.5004 C.ar    1  UNL1        0.0000
      5 C           6.2836   -1.9017   -1.3502 C.ar    1  UNL1        0.0000
      6 S           4.6235   -2.2081   -1.7182 S.2     1  UNL1        0.0000
      7 C           4.0599   -0.9008   -0.7312 C.ar    1  UNL1        0.0000
      8 C           5.1354   -0.2818   -0.1623 C.ar    1  UNL1        0.0000
      9 C           2.6639   -0.5816   -0.6162 C.ar    1  UNL1        0.0000
     10 C           2.0720    0.6387   -0.8661 C.ar    1  UNL1        0.0000
     11 C           0.6565    0.6369   -0.6344 C.ar    1  UNL1        0.0000
     12 C          -0.3013    1.6651   -0.7481 C.ar    1  UNL1        0.0000
     13 C          -1.6606    1.4367   -0.4607 C.ar    1  UNL1        0.0000
     14 C          -2.5413    2.5160   -0.5391 C.ar    1  UNL1        0.0000
     15 C          -3.8918    2.3763   -0.2297 C.ar    1  UNL1        0.0000
     16 C          -4.4380    1.1446    0.1218 C.ar    1  UNL1        0.0000
     17 C          -5.8428    1.1244    0.4215 C.ar    1  UNL1        0.0000
     18 C          -6.5824   -0.0185    0.7617 C.ar    1  UNL1        0.0000
     19 C          -5.7896   -1.1540    0.7265 C.ar    1  UNL1        0.0000
     20 C          -6.3355   -2.3911    0.9684 C.ar    1  UNL1        0.0000
     21 S          -5.1701   -3.6271    0.7787 S.2     1  UNL1        0.0000
     22 C          -3.9438   -2.4923    0.3652 C.ar    1  UNL1        0.0000
     23 C          -4.3697   -1.1840    0.4316 C.ar    1  UNL1        0.0000
     24 C          -3.5685   -0.0098    0.1537 C.ar    1  UNL1        0.0000
     25 C          -2.1336    0.1594   -0.0825 C.ar    1  UNL1        0.0000
     26 C          -1.1485   -0.8483    0.0724 C.ar    1  UNL1        0.0000
     27 C           0.2139   -0.6090   -0.2119 C.ar    1  UNL1        0.0000
     28 S           1.5143   -1.7303   -0.0923 S.2     1  UNL1        0.0000
     29 H           5.0778    2.4793    0.4530 H       1  UNL1        0.0000
     30 H           4.9392    0.9114    2.4084 H       1  UNL1        0.0000
     31 H           8.0109    1.4222    1.4368 H       1  UNL1        0.0000
     32 H           8.5602   -0.5844   -0.1319 H       1  UNL1        0.0000
     33 H           7.0588   -2.5222   -1.7772 H       1  UNL1        0.0000
     34 H           2.6225    1.5060   -1.2100 H       1  UNL1        0.0000
     35 H           0.0347    2.6537   -1.0544 H       1  UNL1        0.0000
     36 H          -2.1806    3.5039   -0.8219 H       1  UNL1        0.0000
     37 H          -4.5184    3.2656   -0.2825 H       1  UNL1        0.0000
     38 H          -6.3976    2.0648    0.3847 H       1  UNL1        0.0000
     39 H          -7.6417    0.0095    0.9784 H       1  UNL1        0.0000
     40 H          -7.3552   -2.6447    1.2240 H       1  UNL1        0.0000
     41 H          -2.9944   -2.9081    0.0781 H       1  UNL1        0.0000
     42 H          -1.4022   -1.8245    0.4581 H       1  UNL1        0.0000
@<TRIPOS>BOND
     1     1     2    1
     2     2     3    2
     3     3     4    1
     4     4     5   ar
     5     5     6   ar
     6     6     7   ar
     7     7     8   ar
     8     7     9    1
     9     9    10   ar
    10    10    11   ar
    11    11    12   ar
    12    12    13   ar
    13    13    14   ar
    14    14    15   ar
    15    15    16   ar
    16    16    17   ar
    17    17    18   ar
    18    18    19   ar
    19    19    20   ar
    20    20    21   ar
    21    21    22   ar
    22    22    23   ar
    23    23    24   ar
    24    24    25   ar
    25    25    26   ar
    26    26    27   ar
    27    27    28   ar
    28     8     1    1
    29    28     9   ar
    30     8     4   ar
    31    27    11   ar
    32    25    13   ar
    33    24    16   ar
    34    23    19   ar
    35     1    29    1
    36     1    30    1
    37     2    31    1
    38     3    32    1
    39     5    33    1
    40    10    34    1
    41    12    35    1
    42    14    36    1
    43    15    37    1
    44    17    38    1
    45    18    39    1
    46    20    40    1
    47    22    41    1
    48    26    42    1
