@<TRIPOS>MOLECULE
*****
 36 41 0 0 0
SMALL
GASTEIGER

@<TRIPOS>ATOM
      1 SI          0.5932   -1.2425    0.7123 Si      1  UNL1        0.0000
      2 C           2.0683   -0.1353    0.3450 C.2     1  UNL1        0.0000
      3 C           1.6926    1.0807   -0.0998 C.2     1  UNL1        0.0000
      4 C           0.2352    1.2624   -0.1824 C.ar    1  UNL1        0.0000
      5 C          -0.4062    2.4080   -0.5979 C.ar    1  UNL1        0.0000
      6 N          -1.7521    2.5180   -0.6593 N.ar    1  UNL1        0.0000
      7 C          -2.5070    1.4604   -0.2965 C.ar    1  UNL1        0.0000
      8 C          -3.8868    1.6023   -0.3690 C.ar    1  UNL1        0.0000
      9 C          -4.7525    0.5529   -0.0105 C.ar    1  UNL1        0.0000
     10 C          -6.1653    0.3984    0.0218 C.ar    1  UNL1        0.0000
     11 C          -6.4361   -0.8745    0.4694 C.ar    1  UNL1        0.0000
     12 N          -5.2399   -1.4973    0.7097 N.ar    1  UNL1        0.0000
     13 C          -4.1968   -0.6453    0.4236 C.ar    1  UNL1        0.0000
     14 C          -2.8144   -0.8397    0.5146 C.ar    1  UNL1        0.0000
     15 C          -1.9607    0.2308    0.1482 C.ar    1  UNL1        0.0000
     16 C          -0.5567    0.1576    0.1962 C.ar    1  UNL1        0.0000
     17 C           3.4199   -0.5397    0.4692 C.ar    1  UNL1        0.0000
     18 S           3.9973   -1.4898    1.8350 S.2     1  UNL1        0.0000
     19 C           5.6367   -1.5309    1.2844 C.ar    1  UNL1        0.0000
     20 C           5.6922   -0.8465    0.1304 C.ar    1  UNL1        0.0000
     21 O           6.7998   -0.6401   -0.6320 O.2     1  UNL1        0.0000
     22 C           6.2396    0.0998   -1.6572 C.ar    1  UNL1        0.0000
     23 C           4.8644    0.3259   -1.5160 C.ar    1  UNL1        0.0000
     24 C           4.5086   -0.3103   -0.3111 C.ar    1  UNL1        0.0000
     25 H           0.4410   -1.5745    2.1526 H       1  UNL1        0.0000
     26 H           0.4941   -2.4060   -0.2065 H       1  UNL1        0.0000
     27 H           2.3664    1.8813   -0.3772 H       1  UNL1        0.0000
     28 H           0.1417    3.2941   -0.9021 H       1  UNL1        0.0000
     29 H          -4.3008    2.5472   -0.7105 H       1  UNL1        0.0000
     30 H          -6.9025    1.1414   -0.2536 H       1  UNL1        0.0000
     31 H          -7.3733   -1.3882    0.6370 H       1  UNL1        0.0000
     32 H          -5.1343   -2.4439    1.0480 H       1  UNL1        0.0000
     33 H          -2.4258   -1.7916    0.8590 H       1  UNL1        0.0000
     34 H           6.4369   -2.0300    1.8107 H       1  UNL1        0.0000
     35 H           6.9472    0.3938   -2.4216 H       1  UNL1        0.0000
     36 H           4.2364    0.8712   -2.2054 H       1  UNL1        0.0000
@<TRIPOS>BOND
     1     1     2    1
     2     2     3    2
     3     3     4    1
     4     4     5   ar
     5     5     6   ar
     6     6     7   ar
     7     7     8   ar
     8     8     9   ar
     9     9    10   ar
    10    10    11   ar
    11    11    12   ar
    12    12    13   ar
    13    13    14   ar
    14    14    15   ar
    15    15    16   ar
    16     2    17    1
    17    17    18   ar
    18    18    19   ar
    19    19    20   ar
    20    20    21   ar
    21    21    22   ar
    22    22    23   ar
    23    23    24   ar
    24    16     1    1
    25    24    17   ar
    26    16     4   ar
    27    24    20   ar
    28    15     7   ar
    29    13     9   ar
    30     1    25    1
    31     1    26    1
    32     3    27    1
    33     5    28    1
    34     8    29    1
    35    10    30    1
    36    11    31    1
    37    12    32    1
    38    14    33    1
    39    19    34    1
    40    22    35    1
    41    23    36    1
