@<TRIPOS>MOLECULE
*****
 47 54 0 0 0
SMALL
GASTEIGER

@<TRIPOS>ATOM
      1 SI         -4.7906    0.3035   -1.8598 Si      1  UNL1        0.0000
      2 C          -6.6747    0.6532   -1.7033 C.2     1  UNL1        0.0000
      3 C          -7.0079    0.9938   -0.4388 C.2     1  UNL1        0.0000
      4 C          -5.9147    1.0207    0.4834 C.ar    1  UNL1        0.0000
      5 C          -5.8776    1.3263    1.8167 C.ar    1  UNL1        0.0000
      6 S          -4.2634    1.2075    2.4244 S.2     1  UNL1        0.0000
      7 C          -3.6171    0.7333    0.8907 C.ar    1  UNL1        0.0000
      8 C          -4.6307    0.6877   -0.0219 C.ar    1  UNL1        0.0000
      9 C          -2.2008    0.4679    0.7516 C.ar    1  UNL1        0.0000
     10 C          -1.1800    1.4250    0.9247 C.ar    1  UNL1        0.0000
     11 C           0.2316    1.1689    0.7761 C.ar    1  UNL1        0.0000
     12 C           1.1111    2.2121    1.0814 C.ar    1  UNL1        0.0000
     13 C           2.4998    2.0670    1.0071 C.ar    1  UNL1        0.0000
     14 C           3.0765    0.8836    0.5235 C.ar    1  UNL1        0.0000
     15 C           4.5105    0.8242    0.4376 C.ar    1  UNL1        0.0000
     16 N           5.5191    1.6941    0.8145 N.ar    1  UNL1        0.0000
     17 C           6.7576    1.1714    0.4984 C.ar    1  UNL1        0.0000
     18 C           6.5793   -0.0545   -0.1088 C.ar    1  UNL1        0.0000
     19 C           5.2005   -0.2351   -0.1214 C.ar    1  UNL1        0.0000
     20 C           4.4186   -1.2730   -0.6622 C.ar    1  UNL1        0.0000
     21 C           4.7985   -2.3639   -1.3749 C.ar    1  UNL1        0.0000
     22 O           3.6529   -2.9850   -1.7955 O.2     1  UNL1        0.0000
     23 C           2.5929   -2.2508   -1.3200 C.ar    1  UNL1        0.0000
     24 C           3.0198   -1.2035   -0.5314 C.ar    1  UNL1        0.0000
     25 C           2.2287   -0.2018    0.1129 C.ar    1  UNL1        0.0000
     26 C           0.7917   -0.0941    0.3571 C.ar    1  UNL1        0.0000
     27 C          -0.2628   -1.0629    0.3054 C.ar    1  UNL1        0.0000
     28 C          -0.1481   -2.4334    0.2709 C.ar    1  UNL1        0.0000
     29 N          -1.4161   -2.9730    0.2746 N.ar    1  UNL1        0.0000
     30 C          -2.3486   -1.9750    0.4152 C.ar    1  UNL1        0.0000
     31 C          -1.6611   -0.7862    0.4814 C.ar    1  UNL1        0.0000
     32 H          -4.1589    1.3013   -2.7591 H       1  UNL1        0.0000
     33 H          -4.5713   -1.1216   -2.2157 H       1  UNL1        0.0000
     34 H          -7.3227    0.5688   -2.5603 H       1  UNL1        0.0000
     35 H          -8.0209    1.2322   -0.1361 H       1  UNL1        0.0000
     36 H          -6.6856    1.6155    2.4735 H       1  UNL1        0.0000
     37 H          -1.4934    2.4337    1.2029 H       1  UNL1        0.0000
     38 H           0.7216    3.1704    1.4245 H       1  UNL1        0.0000
     39 H           3.1108    2.9161    1.2998 H       1  UNL1        0.0000
     40 H           5.3712    2.5849    1.2667 H       1  UNL1        0.0000
     41 H           7.6567    1.7274    0.7287 H       1  UNL1        0.0000
     42 H           7.3572   -0.7040   -0.4859 H       1  UNL1        0.0000
     43 H           5.7296   -2.7994   -1.7053 H       1  UNL1        0.0000
     44 H           1.6323   -2.5970   -1.6692 H       1  UNL1        0.0000
     45 H           0.7020   -3.0986    0.2899 H       1  UNL1        0.0000
     46 H          -1.6240   -3.9633    0.2569 H       1  UNL1        0.0000
     47 H          -3.3994   -2.2144    0.5108 H       1  UNL1        0.0000
@<TRIPOS>BOND
     1     1     2    1
     2     2     3    2
     3     3     4    1
     4     4     5   ar
     5     5     6   ar
     6     6     7   ar
     7     7     8   ar
     8     7     9    1
     9     9    10   ar
    10    10    11   ar
    11    11    12   ar
    12    12    13   ar
    13    13    14   ar
    14    14    15   ar
    15    15    16   ar
    16    16    17   ar
    17    17    18   ar
    18    18    19   ar
    19    19    20   ar
    20    20    21   ar
    21    21    22   ar
    22    22    23   ar
    23    23    24   ar
    24    24    25   ar
    25    25    26   ar
    26    26    27   ar
    27    27    28   ar
    28    28    29   ar
    29    29    30   ar
    30    30    31   ar
    31     8     1    1
    32    31     9   ar
    33     8     4   ar
    34    26    11   ar
    35    31    27   ar
    36    25    14   ar
    37    19    15   ar
    38    24    20   ar
    39     1    32    1
    40     1    33    1
    41     2    34    1
    42     3    35    1
    43     5    36    1
    44    10    37    1
    45    12    38    1
    46    13    39    1
    47    16    40    1
    48    17    41    1
    49    18    42    1
    50    21    43    1
    51    23    44    1
    52    28    45    1
    53    29    46    1
    54    30    47    1
