@<TRIPOS>MOLECULE
*****
 42 48 0 0 0
SMALL
GASTEIGER

@<TRIPOS>ATOM
      1 SI         -4.4935   -1.3613   -0.3431 Si      1  UNL1        0.0000
      2 C          -6.3464   -1.0599    0.0697 C.2     1  UNL1        0.0000
      3 C          -6.5168    0.0944    0.7512 C.2     1  UNL1        0.0000
      4 C          -5.3123    0.8211    1.0112 C.ar    1  UNL1        0.0000
      5 C          -5.1053    2.0022    1.6706 C.ar    1  UNL1        0.0000
      6 S          -3.4227    2.4006    1.6938 S.2     1  UNL1        0.0000
      7 C          -2.9771    0.9853    0.8049 C.ar    1  UNL1        0.0000
      8 C          -4.1001    0.2613    0.5294 C.ar    1  UNL1        0.0000
      9 C          -1.5863    0.7403    0.4891 C.ar    1  UNL1        0.0000
     10 C          -0.6054    0.3806    1.4320 C.ar    1  UNL1        0.0000
     11 C           0.7737    0.1045    1.1257 C.ar    1  UNL1        0.0000
     12 C           1.6001   -0.2349    2.1973 C.ar    1  UNL1        0.0000
     13 C           2.9520   -0.5251    2.0220 C.ar    1  UNL1        0.0000
     14 C           3.5374   -0.4914    0.7441 C.ar    1  UNL1        0.0000
     15 C           4.9215   -0.7961    0.5822 C.ar    1  UNL1        0.0000
     16 S           6.1233   -1.2301    1.7512 S.2     1  UNL1        0.0000
     17 C           7.3471   -1.3642    0.5713 C.ar    1  UNL1        0.0000
     18 C           6.8740   -1.0908   -0.6894 C.ar    1  UNL1        0.0000
     19 C           5.4865   -0.7649   -0.6925 C.ar    1  UNL1        0.0000
     20 N           4.7768   -0.4574   -1.8044 N.ar    1  UNL1        0.0000
     21 C           3.4682   -0.1740   -1.6015 C.ar    1  UNL1        0.0000
     22 C           2.7644   -0.1588   -0.3885 C.ar    1  UNL1        0.0000
     23 C           1.3516    0.1539   -0.2015 C.ar    1  UNL1        0.0000
     24 C           0.3234    0.5359   -1.1359 C.ar    1  UNL1        0.0000
     25 C           0.4174    0.7357   -2.4951 C.ar    1  UNL1        0.0000
     26 N          -0.8251    1.1089   -2.9678 N.ar    1  UNL1        0.0000
     27 C          -1.7251    1.1582   -1.9357 C.ar    1  UNL1        0.0000
     28 C          -1.0493    0.8047   -0.7927 C.ar    1  UNL1        0.0000
     29 H          -4.0028   -2.5751    0.3565 H       1  UNL1        0.0000
     30 H          -4.2922   -1.3357   -1.8143 H       1  UNL1        0.0000
     31 H          -7.1002   -1.7672   -0.2356 H       1  UNL1        0.0000
     32 H          -7.4855    0.4507    1.0819 H       1  UNL1        0.0000
     33 H          -5.8248    2.6552    2.1438 H       1  UNL1        0.0000
     34 H          -0.9302    0.3034    2.4723 H       1  UNL1        0.0000
     35 H           1.2007   -0.2789    3.2102 H       1  UNL1        0.0000
     36 H           3.5359   -0.7798    2.9038 H       1  UNL1        0.0000
     37 H           8.3541   -1.6370    0.8557 H       1  UNL1        0.0000
     38 H           7.4860   -1.1197   -1.5812 H       1  UNL1        0.0000
     39 H           2.9734    0.0524   -2.5350 H       1  UNL1        0.0000
     40 H           1.2205    0.6733   -3.2096 H       1  UNL1        0.0000
     41 H          -1.0354    1.3283   -3.9333 H       1  UNL1        0.0000
     42 H          -2.7516    1.4514   -2.1126 H       1  UNL1        0.0000
@<TRIPOS>BOND
     1     1     2    1
     2     2     3    2
     3     3     4    1
     4     4     5   ar
     5     5     6   ar
     6     6     7   ar
     7     7     8   ar
     8     7     9    1
     9     9    10   ar
    10    10    11   ar
    11    11    12   ar
    12    12    13   ar
    13    13    14   ar
    14    14    15   ar
    15    15    16   ar
    16    16    17   ar
    17    17    18   ar
    18    18    19   ar
    19    19    20   ar
    20    20    21   ar
    21    21    22   ar
    22    22    23   ar
    23    23    24   ar
    24    24    25   ar
    25    25    26   ar
    26    26    27   ar
    27    27    28   ar
    28     8     1    1
    29    28     9   ar
    30     8     4   ar
    31    23    11   ar
    32    28    24   ar
    33    22    14   ar
    34    19    15   ar
    35     1    29    1
    36     1    30    1
    37     2    31    1
    38     3    32    1
    39     5    33    1
    40    10    34    1
    41    12    35    1
    42    13    36    1
    43    17    37    1
    44    18    38    1
    45    21    39    1
    46    25    40    1
    47    26    41    1
    48    27    42    1
