@<TRIPOS>MOLECULE
*****
 46 53 0 0 0
SMALL
GASTEIGER

@<TRIPOS>ATOM
      1 SI          5.3084   -0.4522   -1.6373 Si      1  UNL1        0.0000
      2 C           7.1430   -0.8317   -1.2331 C.2     1  UNL1        0.0000
      3 C           7.3481   -0.9095    0.1003 C.2     1  UNL1        0.0000
      4 C           6.1812   -0.6979    0.9005 C.ar    1  UNL1        0.0000
      5 C           6.0155   -0.7126    2.2588 C.ar    1  UNL1        0.0000
      6 S           4.3661   -0.4042    2.6743 S.2     1  UNL1        0.0000
      7 C           3.8805   -0.2396    1.0226 C.ar    1  UNL1        0.0000
      8 C           4.9653   -0.4294    0.2178 C.ar    1  UNL1        0.0000
      9 C           2.4998    0.0484    0.7079 C.ar    1  UNL1        0.0000
     10 C           1.4339   -0.8594    0.8486 C.ar    1  UNL1        0.0000
     11 C           0.0593   -0.5689    0.5098 C.ar    1  UNL1        0.0000
     12 C          -0.8941   -1.5512    0.6946 C.ar    1  UNL1        0.0000
     13 N          -2.2118   -1.4249    0.4199 N.ar    1  UNL1        0.0000
     14 C          -2.7000   -0.2700   -0.0758 C.ar    1  UNL1        0.0000
     15 C          -1.8423    0.8188   -0.3142 C.ar    1  UNL1        0.0000
     16 C          -2.4542    1.9647   -0.8306 C.ar    1  UNL1        0.0000
     17 N          -3.7688    2.1146   -1.1142 N.ar    1  UNL1        0.0000
     18 C          -4.5870    1.0914   -0.8909 C.ar    1  UNL1        0.0000
     19 C          -5.9542    1.3053   -1.2057 C.ar    1  UNL1        0.0000
     20 C          -6.9996    0.3698   -1.0538 C.ar    1  UNL1        0.0000
     21 C          -6.5253   -0.8293   -0.5428 C.ar    1  UNL1        0.0000
     22 C          -7.3601   -1.8936   -0.3081 C.ar    1  UNL1        0.0000
     23 S          -6.4930   -3.2323    0.3215 S.2     1  UNL1        0.0000
     24 C          -5.0020   -2.3761    0.2759 C.ar    1  UNL1        0.0000
     25 C          -5.1468   -1.0949   -0.2075 C.ar    1  UNL1        0.0000
     26 C          -4.0877   -0.1362   -0.3653 C.ar    1  UNL1        0.0000
     27 C          -0.4264    0.6736   -0.0158 C.ar    1  UNL1        0.0000
     28 C           0.6881    1.5726   -0.1386 C.ar    1  UNL1        0.0000
     29 C           0.7213    2.8730   -0.5826 C.ar    1  UNL1        0.0000
     30 O           1.9941    3.3689   -0.5262 O.2     1  UNL1        0.0000
     31 C           2.7972    2.3847   -0.0380 C.ar    1  UNL1        0.0000
     32 C           2.0493    1.2620    0.2042 C.ar    1  UNL1        0.0000
     33 H           5.1779    0.8756   -2.2867 H       1  UNL1        0.0000
     34 H           4.6788   -1.5884   -2.3548 H       1  UNL1        0.0000
     35 H           7.8680   -0.9557   -2.0212 H       1  UNL1        0.0000
     36 H           8.3170   -1.1169    0.5401 H       1  UNL1        0.0000
     37 H           6.7483   -0.8878    3.0339 H       1  UNL1        0.0000
     38 H           1.6728   -1.8522    1.2381 H       1  UNL1        0.0000
     39 H          -0.6271   -2.5295    1.0903 H       1  UNL1        0.0000
     40 H          -1.8949    2.8619   -1.0546 H       1  UNL1        0.0000
     41 H          -6.2193    2.2878   -1.6026 H       1  UNL1        0.0000
     42 H          -8.0268    0.5898   -1.3113 H       1  UNL1        0.0000
     43 H          -8.4272   -1.9689   -0.4671 H       1  UNL1        0.0000
     44 H          -4.1109   -2.8847    0.6137 H       1  UNL1        0.0000
     45 H           0.0055    3.5889   -0.9534 H       1  UNL1        0.0000
     46 H           3.8406    2.6464    0.0736 H       1  UNL1        0.0000
@<TRIPOS>BOND
     1     1     2    1
     2     2     3    2
     3     3     4    1
     4     4     5   ar
     5     5     6   ar
     6     6     7   ar
     7     7     8   ar
     8     7     9    1
     9     9    10   ar
    10    10    11   ar
    11    11    12   ar
    12    12    13   ar
    13    13    14   ar
    14    14    15   ar
    15    15    16   ar
    16    16    17   ar
    17    17    18   ar
    18    18    19   ar
    19    19    20   ar
    20    20    21   ar
    21    21    22   ar
    22    22    23   ar
    23    23    24   ar
    24    24    25   ar
    25    25    26   ar
    26    15    27   ar
    27    27    28   ar
    28    28    29   ar
    29    29    30   ar
    30    30    31   ar
    31    31    32   ar
    32     8     1    1
    33    32     9   ar
    34     8     4   ar
    35    27    11   ar
    36    32    28   ar
    37    26    14   ar
    38    26    18   ar
    39    25    21   ar
    40     1    33    1
    41     1    34    1
    42     2    35    1
    43     3    36    1
    44     5    37    1
    45    10    38    1
    46    12    39    1
    47    16    40    1
    48    19    41    1
    49    20    42    1
    50    22    43    1
    51    24    44    1
    52    29    45    1
    53    31    46    1
