@<TRIPOS>MOLECULE
*****
 41 47 0 0 0
SMALL
GASTEIGER

@<TRIPOS>ATOM
      1 SI          4.7523    0.3749   -1.6167 Si      1  UNL1        0.0000
      2 C           6.6300    0.6195   -1.3228 C.2     1  UNL1        0.0000
      3 C           6.9405    0.5109   -0.0122 C.2     1  UNL1        0.0000
      4 C           5.8286    0.2444    0.8480 C.ar    1  UNL1        0.0000
      5 C           5.7705    0.0725    2.2045 C.ar    1  UNL1        0.0000
      6 S           4.1449   -0.2251    2.7119 S.2     1  UNL1        0.0000
      7 C           3.5242   -0.1356    1.0993 C.ar    1  UNL1        0.0000
      8 C           4.5502    0.1287    0.2402 C.ar    1  UNL1        0.0000
      9 C           2.1023   -0.2972    0.8618 C.ar    1  UNL1        0.0000
     10 C           1.2630    0.7815    0.5413 C.ar    1  UNL1        0.0000
     11 C          -0.1098    0.6806    0.2931 C.ar    1  UNL1        0.0000
     12 N          -0.7135    1.8303    0.0064 N.ar    1  UNL1        0.0000
     13 C          -2.0453    1.8229   -0.2444 C.ar    1  UNL1        0.0000
     14 C          -2.8679    0.7008   -0.2336 C.ar    1  UNL1        0.0000
     15 C          -2.2498   -0.5353    0.0661 C.ar    1  UNL1        0.0000
     16 C          -3.0896   -1.6698    0.0763 C.ar    1  UNL1        0.0000
     17 C          -4.4547   -1.5798   -0.1944 C.ar    1  UNL1        0.0000
     18 C          -5.0349   -0.3450   -0.4876 C.ar    1  UNL1        0.0000
     19 C          -6.4063   -0.2445   -0.7612 C.ar    1  UNL1        0.0000
     20 C          -6.9667    0.9909   -1.0506 C.ar    1  UNL1        0.0000
     21 C          -6.1314    2.0869   -1.0563 C.ar    1  UNL1        0.0000
     22 N          -4.8067    2.0225   -0.7971 N.ar    1  UNL1        0.0000
     23 C          -4.2461    0.8218   -0.5121 C.ar    1  UNL1        0.0000
     24 C          -0.8264   -0.5507    0.3367 C.ar    1  UNL1        0.0000
     25 C          -0.0014   -1.7046    0.6548 C.ar    1  UNL1        0.0000
     26 N          -0.4069   -2.9847    0.7530 N.ar    1  UNL1        0.0000
     27 S           0.9136   -3.9062    1.1244 S.2     1  UNL1        0.0000
     28 N           2.0839   -2.7441    1.1732 N.ar    1  UNL1        0.0000
     29 C           1.4854   -1.5681    0.9163 C.ar    1  UNL1        0.0000
     30 H           4.4955   -0.8419   -2.4264 H       1  UNL1        0.0000
     31 H           4.1318    1.6219   -2.1285 H       1  UNL1        0.0000
     32 H           7.2978    0.8149   -2.1461 H       1  UNL1        0.0000
     33 H           7.9498    0.6146    0.3692 H       1  UNL1        0.0000
     34 H           6.5699    0.1024    2.9312 H       1  UNL1        0.0000
     35 H           1.7075    1.7782    0.4890 H       1  UNL1        0.0000
     36 H          -2.4515    2.8093   -0.4669 H       1  UNL1        0.0000
     37 H          -2.6998   -2.6593    0.2984 H       1  UNL1        0.0000
     38 H          -5.0555   -2.4868   -0.1723 H       1  UNL1        0.0000
     39 H          -7.0419   -1.1266   -0.7497 H       1  UNL1        0.0000
     40 H          -8.0241    1.0939   -1.2650 H       1  UNL1        0.0000
     41 H          -6.5114    3.0808   -1.2756 H       1  UNL1        0.0000
@<TRIPOS>BOND
     1     1     2    1
     2     2     3    2
     3     3     4    1
     4     4     5   ar
     5     5     6   ar
     6     6     7   ar
     7     7     8   ar
     8     7     9    1
     9     9    10   ar
    10    10    11   ar
    11    11    12   ar
    12    12    13   ar
    13    13    14   ar
    14    14    15   ar
    15    15    16   ar
    16    16    17   ar
    17    17    18   ar
    18    18    19   ar
    19    19    20   ar
    20    20    21   ar
    21    21    22   ar
    22    22    23   ar
    23    15    24   ar
    24    24    25   ar
    25    25    26   ar
    26    26    27   ar
    27    27    28   ar
    28    28    29   ar
    29     8     1    1
    30    29     9   ar
    31     8     4   ar
    32    24    11   ar
    33    29    25   ar
    34    23    14   ar
    35    23    18   ar
    36     1    30    1
    37     1    31    1
    38     2    32    1
    39     3    33    1
    40     5    34    1
    41    10    35    1
    42    13    36    1
    43    16    37    1
    44    17    38    1
    45    19    39    1
    46    20    40    1
    47    21    41    1
