@<TRIPOS>MOLECULE
*****
 35 40 0 0 0
SMALL
GASTEIGER

@<TRIPOS>ATOM
      1 SI          4.7922    0.3006   -1.4301 Si      1  UNL1        0.0000
      2 C           6.5067    0.3191   -0.5928 C.2     1  UNL1        0.0000
      3 C           6.3935    0.2254    0.7490 C.2     1  UNL1        0.0000
      4 C           5.0502    0.1352    1.2349 C.ar    1  UNL1        0.0000
      5 C           4.5866    0.0305    2.5163 C.ar    1  UNL1        0.0000
      6 S           2.8672   -0.0448    2.5324 S.2     1  UNL1        0.0000
      7 C           2.7332    0.0641    0.7981 C.ar    1  UNL1        0.0000
      8 C           3.9943    0.1531    0.2766 C.ar    1  UNL1        0.0000
      9 C           1.4437    0.0508    0.1571 C.ar    1  UNL1        0.0000
     10 C           1.0831    0.1222   -1.1839 C.ar    1  UNL1        0.0000
     11 C          -0.3273    0.0675   -1.2670 C.ar    1  UNL1        0.0000
     12 N          -1.1623    0.1005   -2.3267 N.ar    1  UNL1        0.0000
     13 C          -2.5041    0.0297   -2.1170 C.ar    1  UNL1        0.0000
     14 C          -3.1217   -0.0785   -0.8527 C.ar    1  UNL1        0.0000
     15 C          -4.5068   -0.1643   -0.4396 C.ar    1  UNL1        0.0000
     16 C          -5.6909   -0.1660   -1.1965 C.ar    1  UNL1        0.0000
     17 N          -6.9050   -0.2560   -0.6065 N.ar    1  UNL1        0.0000
     18 C          -6.9750   -0.3458    0.7343 C.ar    1  UNL1        0.0000
     19 C          -5.8784   -0.3533    1.5744 C.ar    1  UNL1        0.0000
     20 C          -4.6274   -0.2596    0.9532 C.ar    1  UNL1        0.0000
     21 S          -3.0842   -0.2436    1.7244 S.2     1  UNL1        0.0000
     22 C          -2.2963   -0.1145    0.2488 C.ar    1  UNL1        0.0000
     23 C          -0.7862   -0.0351    0.0168 C.ar    1  UNL1        0.0000
     24 N           0.2634   -0.0459    0.8758 N.ar    1  UNL1        0.0000
     25 H           4.6336   -0.9060   -2.2795 H       1  UNL1        0.0000
     26 H           4.5260    1.5904   -2.1140 H       1  UNL1        0.0000
     27 H           7.4104    0.3966   -1.1753 H       1  UNL1        0.0000
     28 H           7.2478    0.2180    1.4164 H       1  UNL1        0.0000
     29 H           5.1451   -0.0066    3.4410 H       1  UNL1        0.0000
     30 H           1.7427    0.2051   -2.0333 H       1  UNL1        0.0000
     31 H          -3.0983    0.0632   -3.0267 H       1  UNL1        0.0000
     32 H          -5.6973   -0.0962   -2.2792 H       1  UNL1        0.0000
     33 H          -7.9819   -0.4149    1.1382 H       1  UNL1        0.0000
     34 H          -5.9843   -0.4274    2.6496 H       1  UNL1        0.0000
     35 H           0.2077   -0.1135    1.8833 H       1  UNL1        0.0000
@<TRIPOS>BOND
     1     1     2    1
     2     2     3    2
     3     3     4    1
     4     4     5   ar
     5     5     6   ar
     6     6     7   ar
     7     7     8   ar
     8     7     9    1
     9     9    10   ar
    10    10    11   ar
    11    11    12   ar
    12    12    13   ar
    13    13    14   ar
    14    14    15   ar
    15    15    16   ar
    16    16    17   ar
    17    17    18   ar
    18    18    19   ar
    19    19    20   ar
    20    20    21   ar
    21    21    22   ar
    22    22    23   ar
    23    23    24   ar
    24     8     1    1
    25    24     9   ar
    26     8     4   ar
    27    23    11   ar
    28    22    14   ar
    29    20    15   ar
    30     1    25    1
    31     1    26    1
    32     2    27    1
    33     3    28    1
    34     5    29    1
    35    10    30    1
    36    13    31    1
    37    16    32    1
    38    18    33    1
    39    19    34    1
    40    24    35    1
