@<TRIPOS>MOLECULE
*****
 36 41 0 0 0
SMALL
GASTEIGER

@<TRIPOS>ATOM
      1 SI         -3.5893    1.6703   -0.7377 Si      1  UNL1        0.0000
      2 C          -5.4427    1.5832   -1.1873 C.2     1  UNL1        0.0000
      3 C          -5.9886    0.4127   -0.7907 C.2     1  UNL1        0.0000
      4 C          -5.0803   -0.4859   -0.1459 C.ar    1  UNL1        0.0000
      5 C          -5.2895   -1.7262    0.3922 C.ar    1  UNL1        0.0000
      6 S          -3.8265   -2.3506    1.0649 S.2     1  UNL1        0.0000
      7 C          -2.9045   -0.9591    0.6071 C.ar    1  UNL1        0.0000
      8 C          -3.7289   -0.0633   -0.0092 C.ar    1  UNL1        0.0000
      9 C          -1.5028   -0.8761    0.8800 C.ar    1  UNL1        0.0000
     10 C          -0.7981   -1.1812    2.0279 C.ar    1  UNL1        0.0000
     11 C           0.5693   -0.9212    1.7772 C.ar    1  UNL1        0.0000
     12 N           1.6213   -1.0625    2.6170 N.ar    1  UNL1        0.0000
     13 C           2.8226   -0.7359    2.0868 C.ar    1  UNL1        0.0000
     14 C           3.0518   -0.2786    0.7799 C.ar    1  UNL1        0.0000
     15 C           4.3478    0.0519    0.2719 C.ar    1  UNL1        0.0000
     16 S           5.8755   -0.0206    1.0880 S.2     1  UNL1        0.0000
     17 C           6.7302    0.5325   -0.2747 C.ar    1  UNL1        0.0000
     18 C           5.8972    0.7745   -1.3391 C.ar    1  UNL1        0.0000
     19 C           4.5175    0.5036   -1.0449 C.ar    1  UNL1        0.0000
     20 C           3.3751    0.6293   -1.8740 C.ar    1  UNL1        0.0000
     21 C           2.1011    0.3124   -1.3979 C.ar    1  UNL1        0.0000
     22 C           1.9449   -0.1369   -0.0823 C.ar    1  UNL1        0.0000
     23 C           0.6866   -0.4734    0.4635 C.ar    1  UNL1        0.0000
     24 N          -0.5861   -0.4670   -0.0602 N.ar    1  UNL1        0.0000
     25 H          -2.7248    1.7077   -1.9461 H       1  UNL1        0.0000
     26 H          -3.3279    2.7382    0.2573 H       1  UNL1        0.0000
     27 H          -5.9341    2.4030   -1.6860 H       1  UNL1        0.0000
     28 H          -7.0326    0.1631   -0.9424 H       1  UNL1        0.0000
     29 H          -6.2018   -2.3033    0.4442 H       1  UNL1        0.0000
     30 H          -1.2147   -1.5422    2.9581 H       1  UNL1        0.0000
     31 H           3.6453   -0.8613    2.7869 H       1  UNL1        0.0000
     32 H           7.8040    0.6549   -0.2336 H       1  UNL1        0.0000
     33 H           6.2544    1.1322   -2.2971 H       1  UNL1        0.0000
     34 H           3.4915    0.9774   -2.8981 H       1  UNL1        0.0000
     35 H           1.2514    0.4213   -2.0651 H       1  UNL1        0.0000
     36 H          -0.8144   -0.2230   -1.0125 H       1  UNL1        0.0000
@<TRIPOS>BOND
     1     1     2    1
     2     2     3    2
     3     3     4    1
     4     4     5   ar
     5     5     6   ar
     6     6     7   ar
     7     7     8   ar
     8     7     9    1
     9     9    10   ar
    10    10    11   ar
    11    11    12   ar
    12    12    13   ar
    13    13    14   ar
    14    14    15   ar
    15    15    16   ar
    16    16    17   ar
    17    17    18   ar
    18    18    19   ar
    19    19    20   ar
    20    20    21   ar
    21    21    22   ar
    22    22    23   ar
    23    23    24   ar
    24     8     1    1
    25    24     9   ar
    26     8     4   ar
    27    23    11   ar
    28    22    14   ar
    29    19    15   ar
    30     1    25    1
    31     1    26    1
    32     2    27    1
    33     3    28    1
    34     5    29    1
    35    10    30    1
    36    13    31    1
    37    17    32    1
    38    18    33    1
    39    20    34    1
    40    21    35    1
    41    24    36    1
