@<TRIPOS>MOLECULE
*****
 41 47 0 0 0
SMALL
GASTEIGER

@<TRIPOS>ATOM
      1 SI          3.8429    0.5329    2.1199 Si      1  UNL1        0.0000
      2 C           5.7283    0.8720    1.9833 C.2     1  UNL1        0.0000
      3 C           6.1181    0.9760    0.6935 C.2     1  UNL1        0.0000
      4 C           5.0685    0.8154   -0.2651 C.ar    1  UNL1        0.0000
      5 C           5.0916    0.8593   -1.6330 C.ar    1  UNL1        0.0000
      6 S           3.5078    0.6002   -2.2792 S.2     1  UNL1        0.0000
      7 C           2.7975    0.4224   -0.7120 C.ar    1  UNL1        0.0000
      8 C           3.7646    0.5695    0.2383 C.ar    1  UNL1        0.0000
      9 C           1.3606    0.1681   -0.5837 C.ar    1  UNL1        0.0000
     10 C           0.5168    1.2810   -0.5884 C.ar    1  UNL1        0.0000
     11 C          -0.8699    1.1122   -0.4510 C.ar    1  UNL1        0.0000
     12 S          -2.0058    2.4043   -0.4346 S.2     1  UNL1        0.0000
     13 C          -3.2820    1.3388   -0.2817 C.ar    1  UNL1        0.0000
     14 C          -2.9400    0.0020   -0.2318 C.ar    1  UNL1        0.0000
     15 C          -4.0247   -0.9036   -0.1357 C.ar    1  UNL1        0.0000
     16 N          -5.3435   -0.5666   -0.0662 N.ar    1  UNL1        0.0000
     17 C          -5.6912    0.7352   -0.0993 C.ar    1  UNL1        0.0000
     18 C          -6.9455    1.3778   -0.0481 C.ar    1  UNL1        0.0000
     19 C          -6.6838    2.7306   -0.1286 C.ar    1  UNL1        0.0000
     20 O          -5.3424    2.9596   -0.2263 O.2     1  UNL1        0.0000
     21 C          -4.7607    1.7370   -0.2053 C.ar    1  UNL1        0.0000
     22 C          -1.4723   -0.1483   -0.3041 C.ar    1  UNL1        0.0000
     23 C          -0.5800   -1.2962   -0.2642 C.ar    1  UNL1        0.0000
     24 C          -1.0647   -2.6119   -0.0630 C.ar    1  UNL1        0.0000
     25 C          -0.2185   -3.7230   -0.0387 C.ar    1  UNL1        0.0000
     26 C           1.1431   -3.5563   -0.2120 C.ar    1  UNL1        0.0000
     27 C           1.6580   -2.2759   -0.3970 C.ar    1  UNL1        0.0000
     28 C           0.8300   -1.1263   -0.4188 C.ar    1  UNL1        0.0000
     29 H           3.6019   -0.8048    2.7157 H       1  UNL1        0.0000
     30 H           3.1564    1.6695    2.7829 H       1  UNL1        0.0000
     31 H           6.3380    0.9573    2.8682 H       1  UNL1        0.0000
     32 H           7.1431    1.1672    0.3971 H       1  UNL1        0.0000
     33 H           5.9278    1.0282   -2.2967 H       1  UNL1        0.0000
     34 H           0.9324    2.2809   -0.7019 H       1  UNL1        0.0000
     35 H          -3.8816   -1.9769   -0.1218 H       1  UNL1        0.0000
     36 H          -7.9160    0.9128    0.0349 H       1  UNL1        0.0000
     37 H          -7.3064    3.6148   -0.1307 H       1  UNL1        0.0000
     38 H          -2.1124   -2.8159    0.0974 H       1  UNL1        0.0000
     39 H          -0.6301   -4.7172    0.1167 H       1  UNL1        0.0000
     40 H           1.8088   -4.4151   -0.2001 H       1  UNL1        0.0000
     41 H           2.7354   -2.1871   -0.5291 H       1  UNL1        0.0000
@<TRIPOS>BOND
     1     1     2    1
     2     2     3    2
     3     3     4    1
     4     4     5   ar
     5     5     6   ar
     6     6     7   ar
     7     7     8   ar
     8     7     9    1
     9     9    10   ar
    10    10    11   ar
    11    11    12   ar
    12    12    13   ar
    13    13    14   ar
    14    14    15   ar
    15    15    16   ar
    16    16    17   ar
    17    17    18   ar
    18    18    19   ar
    19    19    20   ar
    20    20    21   ar
    21    14    22   ar
    22    22    23   ar
    23    23    24   ar
    24    24    25   ar
    25    25    26   ar
    26    26    27   ar
    27    27    28   ar
    28     8     1    1
    29    28     9   ar
    30     8     4   ar
    31    22    11   ar
    32    28    23   ar
    33    21    13   ar
    34    21    17   ar
    35     1    29    1
    36     1    30    1
    37     2    31    1
    38     3    32    1
    39     5    33    1
    40    10    34    1
    41    15    35    1
    42    18    36    1
    43    19    37    1
    44    24    38    1
    45    25    39    1
    46    26    40    1
    47    27    41    1
