@<TRIPOS>MOLECULE
*****
 48 55 0 0 0
SMALL
GASTEIGER

@<TRIPOS>ATOM
      1 SI          5.2504    0.1496   -1.5916 Si      1  UNL1        0.0000
      2 C           7.1357    0.4045   -1.3525 C.2     1  UNL1        0.0000
      3 C           7.4538    0.5250   -0.0448 C.2     1  UNL1        0.0000
      4 C           6.3434    0.4407    0.8535 C.ar    1  UNL1        0.0000
      5 C           6.2928    0.5109    2.2191 C.ar    1  UNL1        0.0000
      6 S           4.6663    0.3384    2.7782 S.2     1  UNL1        0.0000
      7 C           4.0295    0.1731    1.1761 C.ar    1  UNL1        0.0000
      8 C           5.0577    0.2502    0.2816 C.ar    1  UNL1        0.0000
      9 C           2.5945    0.0030    0.9728 C.ar    1  UNL1        0.0000
     10 C           1.9250   -1.1117    1.4564 C.ar    1  UNL1        0.0000
     11 C           0.5449   -1.2689    1.2395 C.ar    1  UNL1        0.0000
     12 C          -0.2708   -0.3290    0.5591 C.ar    1  UNL1        0.0000
     13 C           0.4700    0.7523    0.0018 C.ar    1  UNL1        0.0000
     14 C           1.8665    0.9278    0.2311 C.ar    1  UNL1        0.0000
     15 C          -0.3095    1.5676   -0.8545 C.ar    1  UNL1        0.0000
     16 C           0.2410    2.5957   -1.5928 C.ar    1  UNL1        0.0000
     17 S          -0.8753    3.2730   -2.6906 S.2     1  UNL1        0.0000
     18 C          -2.0971    2.1863   -2.1837 C.ar    1  UNL1        0.0000
     19 C          -1.7283    1.4039   -1.1075 C.ar    1  UNL1        0.0000
     20 C          -2.5956    0.4623   -0.4556 C.ar    1  UNL1        0.0000
     21 C          -4.1020    0.3962   -0.5942 C.ar    1  UNL1        0.0000
     22 C          -4.9430    1.3596   -1.1897 C.ar    1  UNL1        0.0000
     23 N          -6.2918    1.2886   -1.3805 N.ar    1  UNL1        0.0000
     24 C          -6.9138    0.1983   -0.9095 C.ar    1  UNL1        0.0000
     25 C          -6.2571   -0.7948   -0.2218 C.ar    1  UNL1        0.0000
     26 C          -4.8585   -0.6694   -0.0474 C.ar    1  UNL1        0.0000
     27 C          -4.0623   -1.5181    0.7404 C.ar    1  UNL1        0.0000
     28 C          -4.5475   -2.5676    1.4875 C.ar    1  UNL1        0.0000
     29 N          -3.5026   -3.0573    2.2214 N.ar    1  UNL1        0.0000
     30 C          -2.3696   -2.3188    1.9625 C.ar    1  UNL1        0.0000
     31 C          -2.6496   -1.3960    0.9753 C.ar    1  UNL1        0.0000
     32 C          -1.7631   -0.4341    0.3795 C.ar    1  UNL1        0.0000
     33 H           4.6497    1.2986   -2.3156 H       1  UNL1        0.0000
     34 H           4.9735   -1.1904   -2.1659 H       1  UNL1        0.0000
     35 H           7.8007    0.4355   -2.2003 H       1  UNL1        0.0000
     36 H           8.4679    0.6740    0.3077 H       1  UNL1        0.0000
     37 H           7.0987    0.6499    2.9257 H       1  UNL1        0.0000
     38 H           2.4662   -1.8880    1.9939 H       1  UNL1        0.0000
     39 H           0.1362   -2.2068    1.5877 H       1  UNL1        0.0000
     40 H           2.3884    1.7890   -0.1758 H       1  UNL1        0.0000
     41 H           1.2522    2.9749   -1.6008 H       1  UNL1        0.0000
     42 H          -3.0086    2.2024   -2.7575 H       1  UNL1        0.0000
     43 H          -4.5596    2.3228   -1.5059 H       1  UNL1        0.0000
     44 H          -7.9853    0.1583   -1.0774 H       1  UNL1        0.0000
     45 H          -6.8144   -1.6290    0.1851 H       1  UNL1        0.0000
     46 H          -5.5363   -2.9891    1.6035 H       1  UNL1        0.0000
     47 H          -3.5647   -3.8060    2.8999 H       1  UNL1        0.0000
     48 H          -1.4984   -2.5375    2.5559 H       1  UNL1        0.0000
@<TRIPOS>BOND
     1     1     2    1
     2     2     3    2
     3     3     4    1
     4     4     5   ar
     5     5     6   ar
     6     6     7   ar
     7     7     8   ar
     8     7     9    1
     9     9    10   ar
    10    10    11   ar
    11    11    12   ar
    12    12    13   ar
    13    13    14   ar
    14    13    15   ar
    15    15    16   ar
    16    16    17   ar
    17    17    18   ar
    18    18    19   ar
    19    19    20   ar
    20    20    21   ar
    21    21    22   ar
    22    22    23   ar
    23    23    24   ar
    24    24    25   ar
    25    25    26   ar
    26    26    27   ar
    27    27    28   ar
    28    28    29   ar
    29    29    30   ar
    30    30    31   ar
    31    31    32   ar
    32     8     1    1
    33    14     9   ar
    34    19    15   ar
    35    32    20   ar
    36     8     4   ar
    37    32    12   ar
    38    26    21   ar
    39    31    27   ar
    40     1    33    1
    41     1    34    1
    42     2    35    1
    43     3    36    1
    44     5    37    1
    45    10    38    1
    46    11    39    1
    47    14    40    1
    48    16    41    1
    49    18    42    1
    50    22    43    1
    51    24    44    1
    52    25    45    1
    53    28    46    1
    54    29    47    1
    55    30    48    1
