@<TRIPOS>MOLECULE
*****
 45 52 0 0 0
SMALL
GASTEIGER

@<TRIPOS>ATOM
      1 SI         -5.0352    2.1711   -0.0317 Si      1  UNL1        0.0000
      2 C          -6.9306    2.2225    0.2563 C.2     1  UNL1        0.0000
      3 C          -7.4176    0.9952    0.5424 C.2     1  UNL1        0.0000
      4 C          -6.4395   -0.0487    0.5667 C.ar    1  UNL1        0.0000
      5 C          -6.5727   -1.3888    0.8078 C.ar    1  UNL1        0.0000
      6 S          -5.0423   -2.1826    0.6970 S.2     1  UNL1        0.0000
      7 C          -4.1968   -0.7163    0.3234 C.ar    1  UNL1        0.0000
      8 C          -5.0924    0.3143    0.2992 C.ar    1  UNL1        0.0000
      9 C          -2.7516   -0.7377    0.1121 C.ar    1  UNL1        0.0000
     10 C          -2.1807   -1.5116   -0.8900 C.ar    1  UNL1        0.0000
     11 C          -0.7947   -1.5010   -1.0804 C.ar    1  UNL1        0.0000
     12 C           0.0795   -0.7238   -0.2754 C.ar    1  UNL1        0.0000
     13 C          -0.5303    0.0719    0.7121 C.ar    1  UNL1        0.0000
     14 C          -1.9065    0.0482    0.8970 C.ar    1  UNL1        0.0000
     15 N           0.1567    0.8866    1.5066 N.ar    1  UNL1        0.0000
     16 C           1.5019    0.9682    1.3561 C.ar    1  UNL1        0.0000
     17 C           2.2982    0.2605    0.4520 C.ar    1  UNL1        0.0000
     18 C           1.5369   -0.6455   -0.3742 C.ar    1  UNL1        0.0000
     19 C           2.4396   -1.3714   -1.2140 C.ar    1  UNL1        0.0000
     20 C           2.1654   -2.3963   -2.0903 C.ar    1  UNL1        0.0000
     21 O           3.3031   -2.8307   -2.7034 O.2     1  UNL1        0.0000
     22 C           4.3324   -2.0998   -2.2045 C.ar    1  UNL1        0.0000
     23 C           3.8620   -1.2045   -1.2753 C.ar    1  UNL1        0.0000
     24 C           4.6389   -0.3076   -0.5244 C.ar    1  UNL1        0.0000
     25 C           6.0635   -0.1947   -0.6559 C.ar    1  UNL1        0.0000
     26 C           6.8219    0.6931    0.1041 C.ar    1  UNL1        0.0000
     27 C           6.0972    1.4805    1.0184 C.ar    1  UNL1        0.0000
     28 N           6.6544    2.3898    1.8324 N.ar    1  UNL1        0.0000
     29 S           5.4236    3.0580    2.7097 S.2     1  UNL1        0.0000
     30 N           4.1335    2.2276    2.0978 N.ar    1  UNL1        0.0000
     31 C           4.5874    1.3684    1.1665 C.ar    1  UNL1        0.0000
     32 C           3.7881    0.4406    0.3756 C.ar    1  UNL1        0.0000
     33 H          -4.7126    2.5304   -1.4354 H       1  UNL1        0.0000
     34 H          -4.3289    2.9524    1.0134 H       1  UNL1        0.0000
     35 H          -7.4748    3.1501    0.1840 H       1  UNL1        0.0000
     36 H          -8.4663    0.8047    0.7397 H       1  UNL1        0.0000
     37 H          -7.4637   -1.9548    1.0399 H       1  UNL1        0.0000
     38 H          -2.8040   -2.1203   -1.5420 H       1  UNL1        0.0000
     39 H          -0.4283   -2.1012   -1.9001 H       1  UNL1        0.0000
     40 H          -2.3259    0.6644    1.6908 H       1  UNL1        0.0000
     41 H           1.9221    1.6776    2.0606 H       1  UNL1        0.0000
     42 H           1.2910   -2.9446   -2.3985 H       1  UNL1        0.0000
     43 H           5.3051   -2.3527   -2.6022 H       1  UNL1        0.0000
     44 H           6.5957   -0.8187   -1.3728 H       1  UNL1        0.0000
     45 H           7.8971    0.7772    0.0034 H       1  UNL1        0.0000
@<TRIPOS>BOND
     1     1     2    1
     2     2     3    2
     3     3     4    1
     4     4     5   ar
     5     5     6   ar
     6     6     7   ar
     7     7     8   ar
     8     7     9    1
     9     9    10   ar
    10    10    11   ar
    11    11    12   ar
    12    12    13   ar
    13    13    14   ar
    14    13    15   ar
    15    15    16   ar
    16    16    17   ar
    17    17    18   ar
    18    18    19   ar
    19    19    20   ar
    20    20    21   ar
    21    21    22   ar
    22    22    23   ar
    23    23    24   ar
    24    24    25   ar
    25    25    26   ar
    26    26    27   ar
    27    27    28   ar
    28    28    29   ar
    29    29    30   ar
    30    30    31   ar
    31    31    32   ar
    32     8     1    1
    33    14     9   ar
    34    32    17   ar
    35     8     4   ar
    36    18    12   ar
    37    23    19   ar
    38    32    24   ar
    39    31    27   ar
    40     1    33    1
    41     1    34    1
    42     2    35    1
    43     3    36    1
    44     5    37    1
    45    10    38    1
    46    11    39    1
    47    14    40    1
    48    16    41    1
    49    20    42    1
    50    22    43    1
    51    25    44    1
    52    26    45    1
