@<TRIPOS>MOLECULE
*****
 43 49 0 0 0
SMALL
GASTEIGER

@<TRIPOS>ATOM
      1 SI         -5.3573   -1.5562    0.0031 Si      1  UNL1        0.0000
      2 C          -7.1754   -1.3709    0.5844 C.2     1  UNL1        0.0000
      3 C          -7.3580   -0.2200    1.2686 C.2     1  UNL1        0.0000
      4 C          -6.1862    0.5895    1.4053 C.ar    1  UNL1        0.0000
      5 C          -6.0001    1.7929    2.0296 C.ar    1  UNL1        0.0000
      6 S          -4.3566    2.3081    1.8820 S.2     1  UNL1        0.0000
      7 C          -3.8976    0.9074    0.9738 C.ar    1  UNL1        0.0000
      8 C          -4.9895    0.1049    0.8140 C.ar    1  UNL1        0.0000
      9 C          -2.5231    0.7567    0.5057 C.ar    1  UNL1        0.0000
     10 C          -2.2464    0.7582   -0.8684 C.ar    1  UNL1        0.0000
     11 C          -0.9384    0.5981   -1.3310 C.ar    1  UNL1        0.0000
     12 C           0.1110    0.4305   -0.4078 C.ar    1  UNL1        0.0000
     13 C           1.4585    0.2616   -0.7988 C.ar    1  UNL1        0.0000
     14 N           2.0624    0.2200   -2.0459 N.ar    1  UNL1        0.0000
     15 C           3.4245    0.0311   -1.9361 C.ar    1  UNL1        0.0000
     16 C           4.4484   -0.0771   -2.9166 C.ar    1  UNL1        0.0000
     17 C           5.7968   -0.2721   -2.5353 C.ar    1  UNL1        0.0000
     18 C           5.9590   -0.3372   -1.1563 C.ar    1  UNL1        0.0000
     19 C           7.1518   -0.5193   -0.4961 C.ar    1  UNL1        0.0000
     20 N           6.8805   -0.5245    0.8653 N.ar    1  UNL1        0.0000
     21 C           5.5296   -0.3486    1.0884 C.ar    1  UNL1        0.0000
     22 C           4.9854   -0.2364   -0.1538 C.ar    1  UNL1        0.0000
     23 C           3.6428   -0.0413   -0.5692 C.ar    1  UNL1        0.0000
     24 C           2.4634    0.0963    0.1615 C.ar    1  UNL1        0.0000
     25 N           2.2267    0.0872    1.4965 N.ar    1  UNL1        0.0000
     26 C           0.9317    0.2535    1.8462 C.ar    1  UNL1        0.0000
     27 C          -0.1483    0.4250    0.9757 C.ar    1  UNL1        0.0000
     28 C          -1.4723    0.5894    1.4203 C.ar    1  UNL1        0.0000
     29 H          -5.2744   -1.5330   -1.4794 H       1  UNL1        0.0000
     30 H          -4.7136   -2.7183    0.6643 H       1  UNL1        0.0000
     31 H          -7.9071   -2.1300    0.3601 H       1  UNL1        0.0000
     32 H          -8.3132    0.0766    1.6865 H       1  UNL1        0.0000
     33 H          -6.7154    2.4030    2.5627 H       1  UNL1        0.0000
     34 H          -3.0509    0.8974   -1.5878 H       1  UNL1        0.0000
     35 H          -0.7540    0.6091   -2.4006 H       1  UNL1        0.0000
     36 H           1.5722    0.3161   -2.9221 H       1  UNL1        0.0000
     37 H           4.2004   -0.0099   -3.9732 H       1  UNL1        0.0000
     38 H           6.6001   -0.3583   -3.2543 H       1  UNL1        0.0000
     39 H           8.1662   -0.6455   -0.8482 H       1  UNL1        0.0000
     40 H           7.5742   -0.6403    1.5919 H       1  UNL1        0.0000
     41 H           5.1103   -0.3223    2.0850 H       1  UNL1        0.0000
     42 H           0.7702    0.2446    2.9225 H       1  UNL1        0.0000
     43 H          -1.6885    0.5816    2.4873 H       1  UNL1        0.0000
@<TRIPOS>BOND
     1     1     2    1
     2     2     3    2
     3     3     4    1
     4     4     5   ar
     5     5     6   ar
     6     6     7   ar
     7     7     8   ar
     8     7     9    1
     9     9    10   ar
    10    10    11   ar
    11    11    12   ar
    12    12    13   ar
    13    13    14   ar
    14    14    15   ar
    15    15    16   ar
    16    16    17   ar
    17    17    18   ar
    18    18    19   ar
    19    19    20   ar
    20    20    21   ar
    21    21    22   ar
    22    22    23   ar
    23    23    24   ar
    24    24    25   ar
    25    25    26   ar
    26    26    27   ar
    27    27    28   ar
    28     8     1    1
    29    28     9   ar
    30     8     4   ar
    31    27    12   ar
    32    24    13   ar
    33    23    15   ar
    34    22    18   ar
    35     1    29    1
    36     1    30    1
    37     2    31    1
    38     3    32    1
    39     5    33    1
    40    10    34    1
    41    11    35    1
    42    14    36    1
    43    16    37    1
    44    17    38    1
    45    19    39    1
    46    20    40    1
    47    21    41    1
    48    26    42    1
    49    28    43    1
