@<TRIPOS>MOLECULE
*****
 33 37 0 0 0
SMALL
GASTEIGER

@<TRIPOS>ATOM
      1 SI         -2.1233   -0.2047   -1.6219 Si      1  UNL1        0.0000
      2 C          -1.0917   -0.2579   -0.0276 C.2     1  UNL1        0.0000
      3 C          -1.8633   -0.2404    1.0809 C.2     1  UNL1        0.0000
      4 C          -3.3067   -0.1915    0.8063 C.ar    1  UNL1        0.0000
      5 C          -4.3193   -0.1682    1.7476 C.ar    1  UNL1        0.0000
      6 N          -5.6330   -0.1132    1.4192 N.ar    1  UNL1        0.0000
      7 C          -5.9382   -0.0837    0.0967 C.ar    1  UNL1        0.0000
      8 C          -5.0008   -0.1035   -0.9271 C.ar    1  UNL1        0.0000
      9 C          -3.6650   -0.1573   -0.5560 C.ar    1  UNL1        0.0000
     10 C           0.3684   -0.2471   -0.0379 C.ar    1  UNL1        0.0000
     11 C           1.1148    0.7150    0.6828 C.ar    1  UNL1        0.0000
     12 C           2.5340    0.7722    0.7148 C.ar    1  UNL1        0.0000
     13 C           3.1903    1.7679    1.4537 C.ar    1  UNL1        0.0000
     14 C           4.5875    1.8392    1.4958 C.ar    1  UNL1        0.0000
     15 C           5.3633    0.9153    0.7992 C.ar    1  UNL1        0.0000
     16 C           4.7465   -0.0868    0.0552 C.ar    1  UNL1        0.0000
     17 C           3.3383   -0.1641    0.0083 C.ar    1  UNL1        0.0000
     18 C           2.6405   -1.1729   -0.7386 C.ar    1  UNL1        0.0000
     19 N           3.1998   -2.1534   -1.4720 N.ar    1  UNL1        0.0000
     20 S           1.9580   -3.0448   -2.1079 S.2     1  UNL1        0.0000
     21 N           0.6512   -2.2301   -1.5011 N.ar    1  UNL1        0.0000
     22 C           1.1272   -1.2134   -0.7599 C.ar    1  UNL1        0.0000
     23 H          -1.9291    1.0645   -2.3697 H       1  UNL1        0.0000
     24 H          -2.0800   -1.4395   -2.4436 H       1  UNL1        0.0000
     25 H          -1.4923   -0.2533    2.0978 H       1  UNL1        0.0000
     26 H          -4.1107   -0.1923    2.8122 H       1  UNL1        0.0000
     27 H          -7.0016   -0.0426   -0.1249 H       1  UNL1        0.0000
     28 H          -5.3153   -0.0797   -1.9640 H       1  UNL1        0.0000
     29 H           0.5583    1.4685    1.2448 H       1  UNL1        0.0000
     30 H           2.6183    2.5079    2.0111 H       1  UNL1        0.0000
     31 H           5.0707    2.6215    2.0767 H       1  UNL1        0.0000
     32 H           6.4481    0.9756    0.8361 H       1  UNL1        0.0000
     33 H           5.3552   -0.8073   -0.4873 H       1  UNL1        0.0000
@<TRIPOS>BOND
     1     1     2    1
     2     2     3    2
     3     3     4    1
     4     4     5   ar
     5     5     6   ar
     6     6     7   ar
     7     7     8   ar
     8     8     9   ar
     9     2    10    1
    10    10    11   ar
    11    11    12   ar
    12    12    13   ar
    13    13    14   ar
    14    14    15   ar
    15    15    16   ar
    16    16    17   ar
    17    17    18   ar
    18    18    19   ar
    19    19    20   ar
    20    20    21   ar
    21    21    22   ar
    22     9     1    1
    23    22    10   ar
    24     9     4   ar
    25    17    12   ar
    26    22    18   ar
    27     1    23    1
    28     1    24    1
    29     3    25    1
    30     5    26    1
    31     7    27    1
    32     8    28    1
    33    11    29    1
    34    13    30    1
    35    14    31    1
    36    15    32    1
    37    16    33    1
