@<TRIPOS>MOLECULE
*****
 44 51 0 0 0
SMALL
GASTEIGER

@<TRIPOS>ATOM
      1 SI          4.8847   -0.2066   -1.8248 Si      1  UNL1        0.0000
      2 C           6.7682    0.0840   -1.6410 C.2     1  UNL1        0.0000
      3 C           7.0703    0.6100   -0.4337 C.2     1  UNL1        0.0000
      4 C           5.9465    0.8291    0.4243 C.ar    1  UNL1        0.0000
      5 C           5.8788    1.3460    1.6894 C.ar    1  UNL1        0.0000
      6 S           4.2428    1.3878    2.2433 S.2     1  UNL1        0.0000
      7 C           3.6251    0.7033    0.7766 C.ar    1  UNL1        0.0000
      8 C           4.6660    0.4704   -0.0753 C.ar    1  UNL1        0.0000
      9 C           2.1961    0.4605    0.6325 C.ar    1  UNL1        0.0000
     10 C           1.6950   -0.8122    0.4356 C.ar    1  UNL1        0.0000
     11 N           0.3797   -1.1059    0.2685 N.ar    1  UNL1        0.0000
     12 C          -0.5547   -0.1286    0.2969 C.ar    1  UNL1        0.0000
     13 C          -0.1156    1.2067    0.5009 C.ar    1  UNL1        0.0000
     14 C           1.2659    1.4904    0.6661 C.ar    1  UNL1        0.0000
     15 C          -1.1661    2.1643    0.5147 C.ar    1  UNL1        0.0000
     16 C          -0.9396    3.5108    0.7017 C.ar    1  UNL1        0.0000
     17 S          -2.3861    4.4165    0.6694 S.2     1  UNL1        0.0000
     18 C          -3.3263    3.0067    0.4060 C.ar    1  UNL1        0.0000
     19 C          -2.5768    1.8522    0.3388 C.ar    1  UNL1        0.0000
     20 C          -3.0756    0.5418    0.1310 C.ar    1  UNL1        0.0000
     21 C          -4.4600    0.1639   -0.0514 C.ar    1  UNL1        0.0000
     22 S          -5.9372    1.0886   -0.0864 S.2     1  UNL1        0.0000
     23 C          -6.9350   -0.2733   -0.3488 C.ar    1  UNL1        0.0000
     24 C          -6.2156   -1.4412   -0.4184 C.ar    1  UNL1        0.0000
     25 C          -4.8489   -1.1583   -0.2493 C.ar    1  UNL1        0.0000
     26 C          -3.8192   -2.1316   -0.2648 C.ar    1  UNL1        0.0000
     27 C          -3.9100   -3.4776   -0.4356 C.ar    1  UNL1        0.0000
     28 O          -2.6418   -3.9827   -0.3708 O.2     1  UNL1        0.0000
     29 C          -1.7949   -2.9242   -0.1589 C.ar    1  UNL1        0.0000
     30 C          -2.4892   -1.7318   -0.0853 C.ar    1  UNL1        0.0000
     31 C          -1.9698   -0.4274    0.1227 C.ar    1  UNL1        0.0000
     32 H           4.5769   -1.6537   -1.9396 H       1  UNL1        0.0000
     33 H           4.3154    0.6626   -2.8838 H       1  UNL1        0.0000
     34 H           7.4467   -0.1630   -2.4416 H       1  UNL1        0.0000
     35 H           8.0821    0.8515   -0.1286 H       1  UNL1        0.0000
     36 H           6.6776    1.7035    2.3239 H       1  UNL1        0.0000
     37 H           2.3523   -1.6782    0.4091 H       1  UNL1        0.0000
     38 H           1.6115    2.5092    0.8126 H       1  UNL1        0.0000
     39 H          -0.0092    4.0372    0.8588 H       1  UNL1        0.0000
     40 H          -4.3872    3.1636    0.3219 H       1  UNL1        0.0000
     41 H          -8.0056   -0.1492   -0.4394 H       1  UNL1        0.0000
     42 H          -6.6648   -2.4127   -0.5795 H       1  UNL1        0.0000
     43 H          -4.6993   -4.1961   -0.5999 H       1  UNL1        0.0000
     44 H          -0.7530   -3.2028   -0.0876 H       1  UNL1        0.0000
@<TRIPOS>BOND
     1     1     2    1
     2     2     3    2
     3     3     4    1
     4     4     5   ar
     5     5     6   ar
     6     6     7   ar
     7     7     8   ar
     8     7     9    1
     9     9    10   ar
    10    10    11   ar
    11    11    12   ar
    12    12    13   ar
    13    13    14   ar
    14    13    15   ar
    15    15    16   ar
    16    16    17   ar
    17    17    18   ar
    18    18    19   ar
    19    19    20   ar
    20    20    21   ar
    21    21    22   ar
    22    22    23   ar
    23    23    24   ar
    24    24    25   ar
    25    25    26   ar
    26    26    27   ar
    27    27    28   ar
    28    28    29   ar
    29    29    30   ar
    30    30    31   ar
    31     8     1    1
    32    14     9   ar
    33    19    15   ar
    34    31    20   ar
    35     8     4   ar
    36    31    12   ar
    37    25    21   ar
    38    30    26   ar
    39     1    32    1
    40     1    33    1
    41     2    34    1
    42     3    35    1
    43     5    36    1
    44    10    37    1
    45    14    38    1
    46    16    39    1
    47    18    40    1
    48    23    41    1
    49    24    42    1
    50    27    43    1
    51    29    44    1
