@<TRIPOS>MOLECULE
*****
 40 46 0 0 0
SMALL
GASTEIGER

@<TRIPOS>ATOM
      1 SI          4.4873   -1.9307    1.0237 Si      1  UNL1        0.0000
      2 C           6.3962   -2.0086    0.8848 C.2     1  UNL1        0.0000
      3 C           6.9166   -0.8014    0.5724 C.2     1  UNL1        0.0000
      4 C           5.9537    0.2450    0.4144 C.ar    1  UNL1        0.0000
      5 C           6.1179    1.5696    0.1137 C.ar    1  UNL1        0.0000
      6 S           4.5903    2.3752    0.0581 S.2     1  UNL1        0.0000
      7 C           3.7056    0.9351    0.4376 C.ar    1  UNL1        0.0000
      8 C           4.5866   -0.0961    0.5934 C.ar    1  UNL1        0.0000
      9 C           2.2507    0.9728    0.5222 C.ar    1  UNL1        0.0000
     10 C           1.5888    1.7694    1.4454 C.ar    1  UNL1        0.0000
     11 N           0.2416    1.8243    1.5816 N.ar    1  UNL1        0.0000
     12 C          -0.5096    1.0638    0.7668 C.ar    1  UNL1        0.0000
     13 C          -1.8934    1.1084    0.8896 C.ar    1  UNL1        0.0000
     14 C          -2.7273    0.3327    0.0592 C.ar    1  UNL1        0.0000
     15 C          -2.1312   -0.4895   -0.8995 C.ar    1  UNL1        0.0000
     16 C          -0.7434   -0.5660   -1.0566 C.ar    1  UNL1        0.0000
     17 C           0.0607    0.2207   -0.2100 C.ar    1  UNL1        0.0000
     18 C           1.4589    0.1879   -0.3163 C.ar    1  UNL1        0.0000
     19 N          -3.1391   -1.1422   -1.5868 N.ar    1  UNL1        0.0000
     20 C          -4.3801   -0.7774   -1.1092 C.ar    1  UNL1        0.0000
     21 C          -5.6730   -1.1758   -1.4929 C.ar    1  UNL1        0.0000
     22 C          -6.7875   -0.6364   -0.8251 C.ar    1  UNL1        0.0000
     23 C          -6.5371    0.2923    0.2124 C.ar    1  UNL1        0.0000
     24 N          -7.4718    0.9108    0.9608 N.ar    1  UNL1        0.0000
     25 S          -6.6471    1.8996    2.0356 S.2     1  UNL1        0.0000
     26 N          -5.0605    1.5838    1.5972 N.ar    1  UNL1        0.0000
     27 C          -5.2029    0.7090    0.6143 C.ar    1  UNL1        0.0000
     28 C          -4.1075    0.1272   -0.1006 C.ar    1  UNL1        0.0000
     29 H           4.0487   -2.2102    2.4129 H       1  UNL1        0.0000
     30 H           3.8440   -2.7538   -0.0319 H       1  UNL1        0.0000
     31 H           6.9258   -2.9327    1.0517 H       1  UNL1        0.0000
     32 H           7.9795   -0.6275    0.4499 H       1  UNL1        0.0000
     33 H           7.0296    2.1188   -0.0746 H       1  UNL1        0.0000
     34 H           2.1357    2.4048    2.1376 H       1  UNL1        0.0000
     35 H          -2.3307    1.7587    1.6433 H       1  UNL1        0.0000
     36 H          -0.3032   -1.2121   -1.8101 H       1  UNL1        0.0000
     37 H           1.9322   -0.4422   -1.0659 H       1  UNL1        0.0000
     38 H          -2.9839   -1.7981   -2.3390 H       1  UNL1        0.0000
     39 H          -5.8206   -1.8929   -2.2969 H       1  UNL1        0.0000
     40 H          -7.8008   -0.9164   -1.0896 H       1  UNL1        0.0000
@<TRIPOS>BOND
     1     1     2    1
     2     2     3    2
     3     3     4    1
     4     4     5   ar
     5     5     6   ar
     6     6     7   ar
     7     7     8   ar
     8     7     9    1
     9     9    10   ar
    10    10    11   ar
    11    11    12   ar
    12    12    13   ar
    13    13    14   ar
    14    14    15   ar
    15    15    16   ar
    16    16    17   ar
    17    17    18   ar
    18    15    19   ar
    19    19    20   ar
    20    20    21   ar
    21    21    22   ar
    22    22    23   ar
    23    23    24   ar
    24    24    25   ar
    25    25    26   ar
    26    26    27   ar
    27    27    28   ar
    28     8     1    1
    29    18     9   ar
    30    28    20   ar
    31     8     4   ar
    32    17    12   ar
    33    27    23   ar
    34    28    14   ar
    35     1    29    1
    36     1    30    1
    37     2    31    1
    38     3    32    1
    39     5    33    1
    40    10    34    1
    41    13    35    1
    42    16    36    1
    43    18    37    1
    44    19    38    1
    45    21    39    1
    46    22    40    1
