@<TRIPOS>MOLECULE
*****
 36 41 0 0 0
SMALL
GASTEIGER

@<TRIPOS>ATOM
      1 SI         -4.3164   -0.3424    1.5256 Si      1  UNL1        0.0000
      2 C          -6.1951   -0.2418    1.1724 C.2     1  UNL1        0.0000
      3 C          -6.4371   -0.0320   -0.1400 C.2     1  UNL1        0.0000
      4 C          -5.2681    0.0658   -0.9593 C.ar    1  UNL1        0.0000
      5 C          -5.1403    0.2768   -2.3036 C.ar    1  UNL1        0.0000
      6 S          -3.4770    0.3047   -2.7592 S.2     1  UNL1        0.0000
      7 C          -2.9112    0.0373   -1.1325 C.ar    1  UNL1        0.0000
      8 C          -1.5297   -0.0622   -0.8490 C.2     1  UNL1        0.0000
      9 C          -0.9589   -1.1318   -0.2572 C.2     1  UNL1        0.0000
     10 C           0.4871   -0.9722   -0.0416 C.ar    1  UNL1        0.0000
     11 C           1.3419   -1.8890    0.5333 C.ar    1  UNL1        0.0000
     12 N           2.6656   -1.6934    0.7155 N.ar    1  UNL1        0.0000
     13 C           3.1587   -0.4964    0.2875 C.ar    1  UNL1        0.0000
     14 C           4.4805   -0.0664    0.3646 C.ar    1  UNL1        0.0000
     15 SI          6.0840   -0.7792    1.0009 Si      1  UNL1        0.0000
     16 C           6.9346    0.8651    0.4485 C.2     1  UNL1        0.0000
     17 C           6.0555    1.7265   -0.1078 C.2     1  UNL1        0.0000
     18 C           4.7386    1.1880   -0.1359 C.ar    1  UNL1        0.0000
     19 S           3.3260    1.8989   -0.7336 S.2     1  UNL1        0.0000
     20 C           2.3715    0.5073   -0.3133 C.ar    1  UNL1        0.0000
     21 C           1.0106    0.2561   -0.4770 C.ar    1  UNL1        0.0000
     22 SI         -0.2941    1.3272   -1.2148 Si      1  UNL1        0.0000
     23 C          -4.0071   -0.0703   -0.3196 C.ar    1  UNL1        0.0000
     24 H          -3.9380   -1.6963    2.0046 H       1  UNL1        0.0000
     25 H          -3.8812    0.7848    2.3876 H       1  UNL1        0.0000
     26 H          -6.9147   -0.3467    1.9681 H       1  UNL1        0.0000
     27 H          -7.4359    0.0574   -0.5517 H       1  UNL1        0.0000
     28 H          -5.9113    0.4152   -3.0482 H       1  UNL1        0.0000
     29 H          -1.4761   -2.0358    0.0367 H       1  UNL1        0.0000
     30 H           0.9763   -2.8512    0.8817 H       1  UNL1        0.0000
     31 H           6.6419   -1.9069    0.2125 H       1  UNL1        0.0000
     32 H           6.1855   -0.9098    2.4765 H       1  UNL1        0.0000
     33 H           7.9929    1.0042    0.5999 H       1  UNL1        0.0000
     34 H           6.3084    2.7077   -0.4892 H       1  UNL1        0.0000
     35 H          -0.0990    1.5572   -2.6697 H       1  UNL1        0.0000
     36 H          -0.5683    2.5436   -0.4060 H       1  UNL1        0.0000
@<TRIPOS>BOND
     1     1     2    1
     2     2     3    2
     3     3     4    1
     4     4     5   ar
     5     5     6   ar
     6     6     7   ar
     7     7     8    1
     8     8     9    2
     9     9    10    1
    10    10    11   ar
    11    11    12   ar
    12    12    13   ar
    13    13    14   ar
    14    14    15    1
    15    15    16    1
    16    16    17    2
    17    17    18    1
    18    18    19   ar
    19    19    20   ar
    20    20    21   ar
    21    21    22    1
    22     7    23   ar
    23    23     1    1
    24    23     4   ar
    25    22     8    1
    26    21    10   ar
    27    20    13   ar
    28    18    14   ar
    29     1    24    1
    30     1    25    1
    31     2    26    1
    32     3    27    1
    33     5    28    1
    34     9    29    1
    35    11    30    1
    36    15    31    1
    37    15    32    1
    38    16    33    1
    39    17    34    1
    40    22    35    1
    41    22    36    1
