@<TRIPOS>MOLECULE
*****
 39 45 0 0 0
SMALL
GASTEIGER

@<TRIPOS>ATOM
      1 SI         -5.3933   -0.1066    0.2229 Si      1  UNL1        0.0000
      2 C          -5.8686    1.6047    0.7859 C.2     1  UNL1        0.0000
      3 C          -4.7890    2.3808    0.9779 C.2     1  UNL1        0.0000
      4 C          -3.5114    1.7046    0.7021 C.ar    1  UNL1        0.0000
      5 N          -2.3764    2.4020    0.8666 N.ar    1  UNL1        0.0000
      6 C          -1.2350    1.7309    0.5990 C.ar    1  UNL1        0.0000
      7 C          -1.1642    0.3932    0.1736 C.ar    1  UNL1        0.0000
      8 C           0.1184   -0.1896   -0.0731 C.ar    1  UNL1        0.0000
      9 N           1.4096    0.3001    0.0181 N.ar    1  UNL1        0.0000
     10 C           2.3475   -0.6563   -0.3297 C.ar    1  UNL1        0.0000
     11 C           1.6435   -1.8077   -0.6583 C.ar    1  UNL1        0.0000
     12 C           0.2969   -1.4895   -0.4919 C.ar    1  UNL1        0.0000
     13 C          -0.8608   -2.2875   -0.6868 C.ar    1  UNL1        0.0000
     14 C          -0.8342   -3.5877   -1.0982 C.ar    1  UNL1        0.0000
     15 S          -2.4474   -4.1627   -1.2005 S.2     1  UNL1        0.0000
     16 C          -3.0964   -2.6418   -0.6890 C.ar    1  UNL1        0.0000
     17 C          -2.1288   -1.6906   -0.4364 C.ar    1  UNL1        0.0000
     18 C          -2.3838   -0.3417    0.0015 C.ar    1  UNL1        0.0000
     19 C          -3.5847    0.3596    0.2815 C.ar    1  UNL1        0.0000
     20 C           3.7703   -0.4203   -0.3251 C.ar    1  UNL1        0.0000
     21 S           4.8773   -1.6816   -0.7769 S.2     1  UNL1        0.0000
     22 C           6.2686   -0.7098   -0.5390 C.ar    1  UNL1        0.0000
     23 C           5.9084    0.5386   -0.1279 C.ar    1  UNL1        0.0000
     24 S           6.9366    1.9638    0.2708 S.2     1  UNL1        0.0000
     25 C           5.4179    2.7716    0.5999 C.ar    1  UNL1        0.0000
     26 C           4.2565    2.0107    0.4171 C.ar    1  UNL1        0.0000
     27 C           4.5196    0.6755   -0.0166 C.ar    1  UNL1        0.0000
     28 H          -5.8658   -0.3984   -1.1529 H       1  UNL1        0.0000
     29 H          -5.7498   -1.1466    1.2191 H       1  UNL1        0.0000
     30 H          -6.8984    1.8940    0.9275 H       1  UNL1        0.0000
     31 H          -4.8031    3.4113    1.3037 H       1  UNL1        0.0000
     32 H          -0.3431    2.3322    0.7450 H       1  UNL1        0.0000
     33 H           1.6331    1.2385    0.3032 H       1  UNL1        0.0000
     34 H           2.0705   -2.7494   -0.9763 H       1  UNL1        0.0000
     35 H           0.0027   -4.2270   -1.3409 H       1  UNL1        0.0000
     36 H          -4.1688   -2.5852   -0.6185 H       1  UNL1        0.0000
     37 H           7.2719   -1.0777   -0.7042 H       1  UNL1        0.0000
     38 H           5.4697    3.8030    0.9224 H       1  UNL1        0.0000
     39 H           3.2840    2.4425    0.6009 H       1  UNL1        0.0000
@<TRIPOS>BOND
     1     1     2    1
     2     2     3    2
     3     3     4    1
     4     4     5   ar
     5     5     6   ar
     6     6     7   ar
     7     7     8   ar
     8     8     9   ar
     9     9    10   ar
    10    10    11   ar
    11    11    12   ar
    12    12    13   ar
    13    13    14   ar
    14    14    15   ar
    15    15    16   ar
    16    16    17   ar
    17    17    18   ar
    18    18    19   ar
    19    10    20    1
    20    20    21   ar
    21    21    22   ar
    22    22    23   ar
    23    23    24   ar
    24    24    25   ar
    25    25    26   ar
    26    26    27   ar
    27    19     1    1
    28    27    20   ar
    29    19     4   ar
    30    27    23   ar
    31    18     7   ar
    32    12     8   ar
    33    17    13   ar
    34     1    28    1
    35     1    29    1
    36     2    30    1
    37     3    31    1
    38     6    32    1
    39     9    33    1
    40    11    34    1
    41    14    35    1
    42    16    36    1
    43    22    37    1
    44    25    38    1
    45    26    39    1
