@<TRIPOS>MOLECULE
*****
 41 46 0 0 0
SMALL
GASTEIGER

@<TRIPOS>ATOM
      1 SI         -5.4823   -0.1253   -0.8634 Si      1  UNL1        0.0000
      2 C          -6.4840   -0.0514    0.7115 C.2     1  UNL1        0.0000
      3 C          -5.6943    0.0024    1.7976 C.2     1  UNL1        0.0000
      4 C          -4.2562   -0.0099    1.4870 C.ar    1  UNL1        0.0000
      5 N          -3.3809    0.0405    2.4995 N.ar    1  UNL1        0.0000
      6 C          -2.0716    0.0261    2.1473 C.ar    1  UNL1        0.0000
      7 C          -1.5546   -0.0361    0.8392 C.ar    1  UNL1        0.0000
      8 C          -0.1322   -0.0470    0.5659 C.ar    1  UNL1        0.0000
      9 SI          1.3377    0.0142    1.7926 Si      1  UNL1        0.0000
     10 C           2.5370   -0.0583    0.3330 C.2     1  UNL1        0.0000
     11 C           1.9102   -0.1115   -0.8595 C.2     1  UNL1        0.0000
     12 C           0.4575   -0.1084   -0.7333 C.ar    1  UNL1        0.0000
     13 C          -0.4929   -0.1583   -1.7375 C.ar    1  UNL1        0.0000
     14 C          -0.2639   -0.2234   -3.0883 C.ar    1  UNL1        0.0000
     15 N          -1.4940   -0.2554   -3.7000 N.ar    1  UNL1        0.0000
     16 C          -2.4993   -0.2111   -2.7535 C.ar    1  UNL1        0.0000
     17 C          -1.9107   -0.1499   -1.5113 C.ar    1  UNL1        0.0000
     18 C          -2.5365   -0.0888   -0.2186 C.ar    1  UNL1        0.0000
     19 C          -3.9073   -0.0746    0.1288 C.ar    1  UNL1        0.0000
     20 C           3.9821   -0.0360    0.5310 C.ar    1  UNL1        0.0000
     21 C           4.6447   -1.1164    1.1273 C.ar    1  UNL1        0.0000
     22 C           6.0298   -1.0857    1.3049 C.ar    1  UNL1        0.0000
     23 C           6.7638    0.0215    0.8831 C.ar    1  UNL1        0.0000
     24 C           6.1152    1.0970    0.2791 C.ar    1  UNL1        0.0000
     25 C           4.7305    1.0672    0.1003 C.ar    1  UNL1        0.0000
     26 H          -5.6843   -1.4067   -1.5854 H       1  UNL1        0.0000
     27 H          -5.6889    1.0802   -1.7051 H       1  UNL1        0.0000
     28 H          -7.5627   -0.0538    0.7016 H       1  UNL1        0.0000
     29 H          -6.0320    0.0511    2.8230 H       1  UNL1        0.0000
     30 H          -1.4149    0.0694    3.0123 H       1  UNL1        0.0000
     31 H           1.3747    1.3062    2.5241 H       1  UNL1        0.0000
     32 H           1.3831   -1.2037    2.6426 H       1  UNL1        0.0000
     33 H           2.4054   -0.1558   -1.8194 H       1  UNL1        0.0000
     34 H           0.6445   -0.2509   -3.6743 H       1  UNL1        0.0000
     35 H          -1.6431   -0.3047   -4.6997 H       1  UNL1        0.0000
     36 H          -3.5231   -0.2295   -3.0914 H       1  UNL1        0.0000
     37 H           4.0917   -1.9961    1.4485 H       1  UNL1        0.0000
     38 H           6.5358   -1.9287    1.7682 H       1  UNL1        0.0000
     39 H           7.8417    0.0441    1.0207 H       1  UNL1        0.0000
     40 H           6.6864    1.9593   -0.0546 H       1  UNL1        0.0000
     41 H           4.2381    1.9135   -0.3737 H       1  UNL1        0.0000
@<TRIPOS>BOND
     1     1     2    1
     2     2     3    2
     3     3     4    1
     4     4     5   ar
     5     5     6   ar
     6     6     7   ar
     7     7     8   ar
     8     8     9    1
     9     9    10    1
    10    10    11    2
    11    11    12    1
    12    12    13   ar
    13    13    14   ar
    14    14    15   ar
    15    15    16   ar
    16    16    17   ar
    17    17    18   ar
    18    18    19   ar
    19    10    20    1
    20    20    21   ar
    21    21    22   ar
    22    22    23   ar
    23    23    24   ar
    24    24    25   ar
    25    19     1    1
    26    25    20   ar
    27    19     4   ar
    28    18     7   ar
    29    12     8   ar
    30    17    13   ar
    31     1    26    1
    32     1    27    1
    33     2    28    1
    34     3    29    1
    35     6    30    1
    36     9    31    1
    37     9    32    1
    38    11    33    1
    39    14    34    1
    40    15    35    1
    41    16    36    1
    42    21    37    1
    43    22    38    1
    44    23    39    1
    45    24    40    1
    46    25    41    1
