@<TRIPOS>MOLECULE
*****
 49 56 0 0 0
SMALL
GASTEIGER

@<TRIPOS>ATOM
      1 SI          7.1269   -0.4768   -2.3070 Si      1  UNL1        0.0000
      2 C           8.5312    0.3879   -1.3885 C.2     1  UNL1        0.0000
      3 C           8.1319    0.8766   -0.1986 C.2     1  UNL1        0.0000
      4 C           6.7132    0.6207    0.0934 C.ar    1  UNL1        0.0000
      5 N           6.1728    1.0475    1.2400 N.ar    1  UNL1        0.0000
      6 C           4.8624    0.7829    1.4553 C.ar    1  UNL1        0.0000
      7 C           4.0791    0.0844    0.5137 C.ar    1  UNL1        0.0000
      8 C           2.7280   -0.3052    0.5015 C.ar    1  UNL1        0.0000
      9 SI          1.2498   -0.1334    1.6686 Si      1  UNL1        0.0000
     10 C           0.2152   -1.0655    0.3510 C.2     1  UNL1        0.0000
     11 C           0.9451   -1.4278   -0.7279 C.2     1  UNL1        0.0000
     12 C           2.2949   -0.9892   -0.6110 C.ar    1  UNL1        0.0000
     13 S           3.5545   -1.1903   -1.7146 S.2     1  UNL1        0.0000
     14 C           4.6827   -0.3507   -0.6861 C.ar    1  UNL1        0.0000
     15 C           6.0289   -0.0767   -0.9001 C.ar    1  UNL1        0.0000
     16 C          -1.1486   -1.3821    0.5546 C.ar    1  UNL1        0.0000
     17 S          -1.4508   -2.8932    1.3509 S.2     1  UNL1        0.0000
     18 C          -3.1330   -2.6577    1.3497 C.ar    1  UNL1        0.0000
     19 C          -3.4929   -1.4761    0.7471 C.ar    1  UNL1        0.0000
     20 C          -2.3462   -0.7328    0.2526 C.ar    1  UNL1        0.0000
     21 C          -2.4824    0.5254   -0.4351 C.ar    1  UNL1        0.0000
     22 C          -1.4297    1.3100   -0.9866 C.ar    1  UNL1        0.0000
     23 C          -1.6767    2.5207   -1.6230 C.ar    1  UNL1        0.0000
     24 C          -2.9758    2.9750   -1.7294 C.ar    1  UNL1        0.0000
     25 C          -4.0277    2.2139   -1.2074 C.ar    1  UNL1        0.0000
     26 C          -3.8503    0.9692   -0.5491 C.ar    1  UNL1        0.0000
     27 C          -4.9974    0.2007   -0.0309 C.ar    1  UNL1        0.0000
     28 C          -6.3433    0.6399   -0.1493 C.ar    1  UNL1        0.0000
     29 C          -7.4430   -0.0840    0.3342 C.ar    1  UNL1        0.0000
     30 C          -7.2540   -1.2990    0.9686 C.ar    1  UNL1        0.0000
     31 C          -5.9645   -1.7894    1.1204 C.ar    1  UNL1        0.0000
     32 C          -4.8455   -1.0579    0.6321 C.ar    1  UNL1        0.0000
     33 H           7.4074   -1.9254   -2.4674 H       1  UNL1        0.0000
     34 H           6.7909    0.2398   -3.5626 H       1  UNL1        0.0000
     35 H           9.5203    0.4535   -1.8143 H       1  UNL1        0.0000
     36 H           8.7512    1.4102    0.5079 H       1  UNL1        0.0000
     37 H           4.4615    1.1443    2.3964 H       1  UNL1        0.0000
     38 H           1.4128   -0.9073    2.9255 H       1  UNL1        0.0000
     39 H           0.8171    1.2774    1.8326 H       1  UNL1        0.0000
     40 H           0.5696   -1.9821   -1.5794 H       1  UNL1        0.0000
     41 H          -3.7559   -3.4172    1.7984 H       1  UNL1        0.0000
     42 H          -0.3980    0.9903   -0.9467 H       1  UNL1        0.0000
     43 H          -0.8554    3.1002   -2.0355 H       1  UNL1        0.0000
     44 H          -3.1848    3.9201   -2.2244 H       1  UNL1        0.0000
     45 H          -5.0177    2.6405   -1.3405 H       1  UNL1        0.0000
     46 H          -6.5833    1.5814   -0.6348 H       1  UNL1        0.0000
     47 H          -8.4474    0.3130    0.2079 H       1  UNL1        0.0000
     48 H          -8.1040   -1.8620    1.3436 H       1  UNL1        0.0000
     49 H          -5.8391   -2.7438    1.6223 H       1  UNL1        0.0000
@<TRIPOS>BOND
     1     1     2    1
     2     2     3    2
     3     3     4    1
     4     4     5   ar
     5     5     6   ar
     6     6     7   ar
     7     7     8   ar
     8     8     9    1
     9     9    10    1
    10    10    11    2
    11    11    12    1
    12    12    13   ar
    13    13    14   ar
    14    14    15   ar
    15    10    16    1
    16    16    17   ar
    17    17    18   ar
    18    18    19   ar
    19    19    20   ar
    20    20    21   ar
    21    21    22   ar
    22    22    23   ar
    23    23    24   ar
    24    24    25   ar
    25    25    26   ar
    26    26    27   ar
    27    27    28   ar
    28    28    29   ar
    29    29    30   ar
    30    30    31   ar
    31    31    32   ar
    32    15     1    1
    33    20    16   ar
    34    26    21   ar
    35    32    27   ar
    36    15     4   ar
    37    32    19   ar
    38    14     7   ar
    39    12     8   ar
    40     1    33    1
    41     1    34    1
    42     2    35    1
    43     3    36    1
    44     6    37    1
    45     9    38    1
    46     9    39    1
    47    11    40    1
    48    18    41    1
    49    22    42    1
    50    23    43    1
    51    24    44    1
    52    25    45    1
    53    28    46    1
    54    29    47    1
    55    30    48    1
    56    31    49    1
