@<TRIPOS>MOLECULE
*****
 44 50 0 0 0
SMALL
GASTEIGER

@<TRIPOS>ATOM
      1 SI         -5.5720   -0.5135   -0.1541 Si      1  UNL1        0.0000
      2 C          -6.5754    1.0315   -0.3614 C.2     1  UNL1        0.0000
      3 C          -5.7919    2.1196   -0.3725 C.2     1  UNL1        0.0000
      4 C          -4.3580    1.8260   -0.2316 C.ar    1  UNL1        0.0000
      5 N          -3.5142    2.8472   -0.3053 N.ar    1  UNL1        0.0000
      6 C          -2.2102    2.5042   -0.2591 C.ar    1  UNL1        0.0000
      7 C          -1.6573    1.2070   -0.1167 C.ar    1  UNL1        0.0000
      8 C          -0.2372    0.9954   -0.1602 C.ar    1  UNL1        0.0000
      9 C           0.6966    2.0489   -0.3722 C.ar    1  UNL1        0.0000
     10 C           2.0807    1.8580   -0.4389 C.ar    1  UNL1        0.0000
     11 C           2.6279    0.5940   -0.2917 C.ar    1  UNL1        0.0000
     12 C           1.7106   -0.4553   -0.0916 C.ar    1  UNL1        0.0000
     13 C           0.2884   -0.3069   -0.0143 C.ar    1  UNL1        0.0000
     14 C          -0.5979   -1.4074    0.2236 C.ar    1  UNL1        0.0000
     15 C          -0.1076   -2.7352    0.3999 C.ar    1  UNL1        0.0000
     16 C          -0.9214   -3.8222    0.7008 C.ar    1  UNL1        0.0000
     17 C          -2.2679   -3.6131    0.8605 C.ar    1  UNL1        0.0000
     18 C          -2.7829   -2.3290    0.6760 C.ar    1  UNL1        0.0000
     19 C          -2.0060   -1.1948    0.3072 C.ar    1  UNL1        0.0000
     20 C          -2.5700    0.1257    0.0565 C.ar    1  UNL1        0.0000
     21 C          -3.9608    0.4811   -0.0607 C.ar    1  UNL1        0.0000
     22 C           4.0710    0.3242   -0.3578 C.ar    1  UNL1        0.0000
     23 N           4.4746   -0.9197   -0.8027 N.ar    1  UNL1        0.0000
     24 C           5.7960   -1.2634   -0.9017 C.ar    1  UNL1        0.0000
     25 C           6.8940   -0.4769   -0.5821 C.ar    1  UNL1        0.0000
     26 C           6.5457    0.7994   -0.1059 C.ar    1  UNL1        0.0000
     27 N           7.4212    1.7418    0.2785 N.ar    1  UNL1        0.0000
     28 S           6.5250    3.0472    0.7689 S.2     1  UNL1        0.0000
     29 N           4.9897    2.4818    0.5081 N.ar    1  UNL1        0.0000
     30 C           5.1041    1.2319    0.0189 C.ar    1  UNL1        0.0000
     31 H          -5.8975   -1.1996    1.1217 H       1  UNL1        0.0000
     32 H          -5.6331   -1.3901   -1.3493 H       1  UNL1        0.0000
     33 H          -7.6500    1.0151   -0.4556 H       1  UNL1        0.0000
     34 H          -6.1322    3.1398   -0.4829 H       1  UNL1        0.0000
     35 H          -1.5834    3.3850   -0.3540 H       1  UNL1        0.0000
     36 H           0.3735    3.0774   -0.5076 H       1  UNL1        0.0000
     37 H           2.7075    2.7275   -0.6241 H       1  UNL1        0.0000
     38 H           2.1546   -1.4421    0.0161 H       1  UNL1        0.0000
     39 H           0.9503   -2.9648    0.3148 H       1  UNL1        0.0000
     40 H          -0.4925   -4.8112    0.8327 H       1  UNL1        0.0000
     41 H          -2.9252   -4.4330    1.1367 H       1  UNL1        0.0000
     42 H          -3.8378   -2.2446    0.8863 H       1  UNL1        0.0000
     43 H           5.9546   -2.2746   -1.2767 H       1  UNL1        0.0000
     44 H           7.9161   -0.8118   -0.6828 H       1  UNL1        0.0000
@<TRIPOS>BOND
     1     1     2    1
     2     2     3    2
     3     3     4    1
     4     4     5   ar
     5     5     6   ar
     6     6     7   ar
     7     7     8   ar
     8     8     9   ar
     9     9    10   ar
    10    10    11   ar
    11    11    12   ar
    12    12    13   ar
    13    13    14   ar
    14    14    15   ar
    15    15    16   ar
    16    16    17   ar
    17    17    18   ar
    18    18    19   ar
    19    19    20   ar
    20    20    21   ar
    21    11    22    1
    22    22    23   ar
    23    23    24   ar
    24    24    25   ar
    25    25    26   ar
    26    26    27   ar
    27    27    28   ar
    28    28    29   ar
    29    29    30   ar
    30    21     1    1
    31    30    22   ar
    32    21     4   ar
    33    30    26   ar
    34    20     7   ar
    35    13     8   ar
    36    19    14   ar
    37     1    31    1
    38     1    32    1
    39     2    33    1
    40     3    34    1
    41     6    35    1
    42     9    36    1
    43    10    37    1
    44    12    38    1
    45    15    39    1
    46    16    40    1
    47    17    41    1
    48    18    42    1
    49    24    43    1
    50    25    44    1
