@<TRIPOS>MOLECULE
*****
 41 47 0 0 0
SMALL
GASTEIGER

@<TRIPOS>ATOM
      1 SI          5.7176    0.5536   -0.4758 Si      1  UNL1        0.0000
      2 C           6.6540   -1.0478   -0.3410 C.2     1  UNL1        0.0000
      3 C           5.8230   -2.0881   -0.1662 C.2     1  UNL1        0.0000
      4 C           4.4019   -1.7122   -0.1251 C.ar    1  UNL1        0.0000
      5 N           3.4972   -2.6761    0.0451 N.ar    1  UNL1        0.0000
      6 C           2.2030   -2.2688    0.0751 C.ar    1  UNL1        0.0000
      7 C           1.7023   -0.9552   -0.0529 C.ar    1  UNL1        0.0000
      8 C           0.2501   -0.6770    0.0001 C.ar    1  UNL1        0.0000
      9 C          -0.7310   -1.6838    0.1809 C.ar    1  UNL1        0.0000
     10 C          -2.1124   -1.4257    0.2311 C.ar    1  UNL1        0.0000
     11 C          -2.6187   -0.1329    0.1054 C.ar    1  UNL1        0.0000
     12 C          -1.6883    0.8955   -0.0747 C.ar    1  UNL1        0.0000
     13 C          -0.2861    0.6391   -0.1265 C.ar    1  UNL1        0.0000
     14 C           0.7165    1.6267   -0.3032 C.ar    1  UNL1        0.0000
     15 C           0.4306    2.9678   -0.4453 C.ar    1  UNL1        0.0000
     16 S           1.8403    3.9120   -0.6425 S.2     1  UNL1        0.0000
     17 C           2.8452    2.5270   -0.5374 C.ar    1  UNL1        0.0000
     18 C           2.1394    1.3581   -0.3560 C.ar    1  UNL1        0.0000
     19 C           2.7234    0.0515   -0.2350 C.ar    1  UNL1        0.0000
     20 C           4.0903   -0.3513   -0.2692 C.ar    1  UNL1        0.0000
     21 C          -4.0555    0.1416    0.1407 C.ar    1  UNL1        0.0000
     22 C          -4.7313    0.9269   -0.8081 C.ar    1  UNL1        0.0000
     23 N          -6.0669    1.2482   -0.8560 N.ar    1  UNL1        0.0000
     24 C          -6.9250    0.7872    0.0976 C.ar    1  UNL1        0.0000
     25 C          -6.4014   -0.0204    1.1250 C.ar    1  UNL1        0.0000
     26 N          -7.0904   -0.5594    2.1438 N.ar    1  UNL1        0.0000
     27 S          -5.9915   -1.3996    3.0591 S.2     1  UNL1        0.0000
     28 N          -4.6004   -1.1243    2.2014 N.ar    1  UNL1        0.0000
     29 C          -4.9289   -0.3523    1.1480 C.ar    1  UNL1        0.0000
     30 H           5.8540    1.1790   -1.8142 H       1  UNL1        0.0000
     31 H           6.0037    1.4742    0.6519 H       1  UNL1        0.0000
     32 H           7.7304   -1.0910   -0.4010 H       1  UNL1        0.0000
     33 H           6.1192   -3.1222   -0.0602 H       1  UNL1        0.0000
     34 H           1.5386   -3.1159    0.2180 H       1  UNL1        0.0000
     35 H          -0.4529   -2.7286    0.2935 H       1  UNL1        0.0000
     36 H          -2.7877   -2.2695    0.3710 H       1  UNL1        0.0000
     37 H          -2.0511    1.9166   -0.1613 H       1  UNL1        0.0000
     38 H          -0.5242    3.4726   -0.4468 H       1  UNL1        0.0000
     39 H           3.9020    2.7056   -0.6213 H       1  UNL1        0.0000
     40 H          -4.1714    1.3538   -1.6422 H       1  UNL1        0.0000
     41 H          -7.9676    1.0650    0.0192 H       1  UNL1        0.0000
@<TRIPOS>BOND
     1     1     2    1
     2     2     3    2
     3     3     4    1
     4     4     5   ar
     5     5     6   ar
     6     6     7   ar
     7     7     8   ar
     8     8     9   ar
     9     9    10   ar
    10    10    11   ar
    11    11    12   ar
    12    12    13   ar
    13    13    14   ar
    14    14    15   ar
    15    15    16   ar
    16    16    17   ar
    17    17    18   ar
    18    18    19   ar
    19    19    20   ar
    20    11    21    1
    21    21    22   ar
    22    22    23   ar
    23    23    24   ar
    24    24    25   ar
    25    25    26   ar
    26    26    27   ar
    27    27    28   ar
    28    28    29   ar
    29    20     1    1
    30    29    21   ar
    31    20     4   ar
    32    29    25   ar
    33    19     7   ar
    34    13     8   ar
    35    18    14   ar
    36     1    30    1
    37     1    31    1
    38     2    32    1
    39     3    33    1
    40     6    34    1
    41     9    35    1
    42    10    36    1
    43    12    37    1
    44    15    38    1
    45    17    39    1
    46    22    40    1
    47    24    41    1
