@<TRIPOS>MOLECULE
*****
 40 46 0 0 0
SMALL
GASTEIGER

@<TRIPOS>ATOM
      1 SI         -5.9622   -0.4996    0.1132 Si      1  UNL1        0.0000
      2 C          -6.5948    1.2042   -0.5273 C.2     1  UNL1        0.0000
      3 C          -5.5734    2.0374   -0.8238 C.2     1  UNL1        0.0000
      4 C          -4.3125    1.4239   -0.5802 C.ar    1  UNL1        0.0000
      5 O          -3.0408    1.9144   -0.7463 O.2     1  UNL1        0.0000
      6 C          -2.1693    0.9129   -0.3635 C.ar    1  UNL1        0.0000
      7 C          -2.9209   -0.1823    0.0336 C.ar    1  UNL1        0.0000
      8 C          -4.2439    0.1236   -0.0966 C.ar    1  UNL1        0.0000
      9 C          -2.2056   -1.3231    0.4662 C.ar    1  UNL1        0.0000
     10 C          -2.6489   -2.5314    0.9092 C.ar    1  UNL1        0.0000
     11 N          -1.4983   -3.2440    1.1884 N.ar    1  UNL1        0.0000
     12 C          -0.3754   -2.4766    0.9177 C.ar    1  UNL1        0.0000
     13 C          -0.7992   -1.2494    0.4567 C.ar    1  UNL1        0.0000
     14 C           0.0177   -0.1581    0.0619 C.ar    1  UNL1        0.0000
     15 C           1.4261   -0.0817    0.0516 C.ar    1  UNL1        0.0000
     16 C           2.0338    1.0956   -0.3777 C.ar    1  UNL1        0.0000
     17 N           1.3040    2.1718   -0.7866 N.ar    1  UNL1        0.0000
     18 C          -0.0497    2.0886   -0.7731 C.ar    1  UNL1        0.0000
     19 C          -0.7462    0.9593   -0.3627 C.ar    1  UNL1        0.0000
     20 C           3.5022    1.2742   -0.4249 C.ar    1  UNL1        0.0000
     21 S           4.1600    2.7902   -0.9794 S.2     1  UNL1        0.0000
     22 C           5.7799    2.2931   -0.7734 C.ar    1  UNL1        0.0000
     23 C           5.8473    1.0134   -0.2972 C.ar    1  UNL1        0.0000
     24 N           7.0327    0.3893   -0.0499 N.ar    1  UNL1        0.0000
     25 C           6.8279   -0.8703    0.4153 C.ar    1  UNL1        0.0000
     26 C           5.5749   -1.4564    0.6165 C.ar    1  UNL1        0.0000
     27 N           4.3782   -0.8547    0.3773 N.ar    1  UNL1        0.0000
     28 C           4.5423    0.4195   -0.0938 C.ar    1  UNL1        0.0000
     29 H          -6.3606   -1.5804   -0.8227 H       1  UNL1        0.0000
     30 H          -6.3900   -0.7111    1.5187 H       1  UNL1        0.0000
     31 H          -7.6519    1.3981   -0.6126 H       1  UNL1        0.0000
     32 H          -5.6704    3.0465   -1.1997 H       1  UNL1        0.0000
     33 H          -3.6269   -2.9655    1.0580 H       1  UNL1        0.0000
     34 H          -1.4756   -4.1923    1.5408 H       1  UNL1        0.0000
     35 H           0.6106   -2.8892    1.0834 H       1  UNL1        0.0000
     36 H           2.0060   -0.9353    0.3759 H       1  UNL1        0.0000
     37 H          -0.5662    2.9829   -1.1117 H       1  UNL1        0.0000
     38 H           6.5993    2.9563   -1.0090 H       1  UNL1        0.0000
     39 H           7.7337   -1.4286    0.6346 H       1  UNL1        0.0000
     40 H           5.5060   -2.4732    0.9932 H       1  UNL1        0.0000
@<TRIPOS>BOND
     1     1     2    1
     2     2     3    2
     3     3     4    1
     4     4     5   ar
     5     5     6   ar
     6     6     7   ar
     7     7     8   ar
     8     7     9   ar
     9     9    10   ar
    10    10    11   ar
    11    11    12   ar
    12    12    13   ar
    13    13    14   ar
    14    14    15   ar
    15    15    16   ar
    16    16    17   ar
    17    17    18   ar
    18    18    19   ar
    19    16    20    1
    20    20    21   ar
    21    21    22   ar
    22    22    23   ar
    23    23    24   ar
    24    24    25   ar
    25    25    26   ar
    26    26    27   ar
    27    27    28   ar
    28     8     1    1
    29    13     9   ar
    30    19    14   ar
    31    28    20   ar
    32     8     4   ar
    33    28    23   ar
    34    19     6   ar
    35     1    29    1
    36     1    30    1
    37     2    31    1
    38     3    32    1
    39    10    33    1
    40    11    34    1
    41    12    35    1
    42    15    36    1
    43    18    37    1
    44    22    38    1
    45    25    39    1
    46    26    40    1
