@<TRIPOS>MOLECULE
*****
 39 44 0 0 0
SMALL
GASTEIGER

@<TRIPOS>ATOM
      1 SI          6.3744   -1.1652    0.4374 Si      1  UNL1        0.0000
      2 C           6.6744    0.1318   -0.9761 C.2     1  UNL1        0.0000
      3 C           5.5271    0.7419   -1.3475 C.2     1  UNL1        0.0000
      4 C           4.4184    0.2622   -0.5975 C.ar    1  UNL1        0.0000
      5 O           3.0904    0.5977   -0.6431 O.2     1  UNL1        0.0000
      6 C           2.4939   -0.1798    0.2994 C.ar    1  UNL1        0.0000
      7 C           3.3833   -1.0106    0.9584 C.ar    1  UNL1        0.0000
      8 N           3.0079   -1.8700    1.9354 N.ar    1  UNL1        0.0000
      9 C           1.6902   -1.9257    2.2937 C.ar    1  UNL1        0.0000
     10 C           0.6771   -1.1434    1.7119 C.ar    1  UNL1        0.0000
     11 C          -0.7268   -0.9829    1.8673 C.ar    1  UNL1        0.0000
     12 C          -1.1630   -0.0288    0.9553 C.ar    1  UNL1        0.0000
     13 N          -0.0516    0.4147    0.2662 N.ar    1  UNL1        0.0000
     14 C           1.0326   -0.2620    0.7169 C.ar    1  UNL1        0.0000
     15 C          -2.5001    0.5159    0.7156 C.ar    1  UNL1        0.0000
     16 C          -3.0853    1.2702    1.7443 C.ar    1  UNL1        0.0000
     17 C          -4.3373    1.8509    1.5733 C.ar    1  UNL1        0.0000
     18 C          -5.0193    1.6831    0.3710 C.ar    1  UNL1        0.0000
     19 C          -4.4672    0.9249   -0.6728 C.ar    1  UNL1        0.0000
     20 C          -5.1761    0.7609   -1.8748 C.ar    1  UNL1        0.0000
     21 C          -4.6541   -0.0001   -2.9196 C.ar    1  UNL1        0.0000
     22 C          -3.4174   -0.6135   -2.7742 C.ar    1  UNL1        0.0000
     23 C          -2.6992   -0.4585   -1.5864 C.ar    1  UNL1        0.0000
     24 C          -3.1947    0.3197   -0.5116 C.ar    1  UNL1        0.0000
     25 C           4.5938   -0.7122    0.3731 C.ar    1  UNL1        0.0000
     26 H           6.7198   -2.5177   -0.0679 H       1  UNL1        0.0000
     27 H           7.1115   -0.7343    1.6518 H       1  UNL1        0.0000
     28 H           7.6681    0.2876   -1.3638 H       1  UNL1        0.0000
     29 H           5.4349    1.5002   -2.1127 H       1  UNL1        0.0000
     30 H           1.4628   -2.6365    3.0832 H       1  UNL1        0.0000
     31 H          -1.3631   -1.5130    2.5647 H       1  UNL1        0.0000
     32 H          -0.0508    1.1238   -0.4559 H       1  UNL1        0.0000
     33 H          -2.5561    1.4183    2.6834 H       1  UNL1        0.0000
     34 H          -4.7797    2.4378    2.3739 H       1  UNL1        0.0000
     35 H          -5.9964    2.1481    0.2558 H       1  UNL1        0.0000
     36 H          -6.1514    1.2256   -2.0055 H       1  UNL1        0.0000
     37 H          -5.2177   -0.1190   -3.8411 H       1  UNL1        0.0000
     38 H          -3.0097   -1.2188   -3.5797 H       1  UNL1        0.0000
     39 H          -1.7435   -0.9715   -1.5019 H       1  UNL1        0.0000
@<TRIPOS>BOND
     1     1     2    1
     2     2     3    2
     3     3     4    1
     4     4     5   ar
     5     5     6   ar
     6     6     7   ar
     7     7     8   ar
     8     8     9   ar
     9     9    10   ar
    10    10    11   ar
    11    11    12   ar
    12    12    13   ar
    13    13    14   ar
    14    12    15    1
    15    15    16   ar
    16    16    17   ar
    17    17    18   ar
    18    18    19   ar
    19    19    20   ar
    20    20    21   ar
    21    21    22   ar
    22    22    23   ar
    23    23    24   ar
    24     7    25   ar
    25    25     1    1
    26    25     4   ar
    27    14     6   ar
    28    24    15   ar
    29    14    10   ar
    30    24    19   ar
    31     1    26    1
    32     1    27    1
    33     2    28    1
    34     3    29    1
    35     9    30    1
    36    11    31    1
    37    13    32    1
    38    16    33    1
    39    17    34    1
    40    18    35    1
    41    20    36    1
    42    21    37    1
    43    22    38    1
    44    23    39    1
