@<TRIPOS>MOLECULE
*****
 48 55 0 0 0
SMALL
GASTEIGER

@<TRIPOS>ATOM
      1 SI         -1.7105    0.8658   -0.5552 Si      1  UNL1        0.0000
      2 C          -2.6535   -0.6826   -0.0984 C.2     1  UNL1        0.0000
      3 C          -1.8234   -1.6804    0.2588 C.2     1  UNL1        0.0000
      4 C          -0.4034   -1.3050    0.2272 C.ar    1  UNL1        0.0000
      5 N           0.5083   -2.2042    0.6016 N.ar    1  UNL1        0.0000
      6 C           1.8048   -1.7986    0.5363 C.ar    1  UNL1        0.0000
      7 C           2.3068   -0.5599    0.0904 C.ar    1  UNL1        0.0000
      8 C           1.2680    0.3900   -0.2220 C.ar    1  UNL1        0.0000
      9 C          -0.0950   -0.0024   -0.1795 C.ar    1  UNL1        0.0000
     10 C           1.8321    1.6621   -0.5171 C.ar    1  UNL1        0.0000
     11 C           1.1827    2.8323   -0.8321 C.ar    1  UNL1        0.0000
     12 O           2.0802    3.8425   -1.0153 O.2     1  UNL1        0.0000
     13 C           3.3200    3.3211   -0.8129 C.ar    1  UNL1        0.0000
     14 C           3.2239    1.9862   -0.5030 C.ar    1  UNL1        0.0000
     15 C           4.2889    1.1059   -0.2400 C.ar    1  UNL1        0.0000
     16 C           5.6754    1.5340   -0.2367 C.ar    1  UNL1        0.0000
     17 C           6.7517    0.6677   -0.0249 C.ar    1  UNL1        0.0000
     18 C           6.3208   -0.6443    0.1131 C.ar    1  UNL1        0.0000
     19 C           7.2387   -1.6582    0.2463 C.ar    1  UNL1        0.0000
     20 S           6.4737   -3.1854    0.2811 S.2     1  UNL1        0.0000
     21 C           4.9154   -2.4776    0.1072 C.ar    1  UNL1        0.0000
     22 C           4.9378   -1.0990    0.1137 C.ar    1  UNL1        0.0000
     23 C           3.7778   -0.2400    0.0026 C.ar    1  UNL1        0.0000
     24 C          -4.0920   -0.7828   -0.2081 C.ar    1  UNL1        0.0000
     25 C          -4.7692   -1.6100   -1.1395 C.ar    1  UNL1        0.0000
     26 C          -6.2021   -1.6979   -1.2498 C.ar    1  UNL1        0.0000
     27 C          -7.1081   -0.9775   -0.4382 C.ar    1  UNL1        0.0000
     28 C          -6.4234   -0.1885    0.4764 C.ar    1  UNL1        0.0000
     29 C          -6.9959    0.6162    1.4266 C.ar    1  UNL1        0.0000
     30 N          -5.9636    1.1939    2.1344 N.ar    1  UNL1        0.0000
     31 C          -4.7463    0.7663    1.6431 C.ar    1  UNL1        0.0000
     32 C          -5.0027   -0.0876    0.5968 C.ar    1  UNL1        0.0000
     33 H          -1.8179    1.2229   -1.9930 H       1  UNL1        0.0000
     34 H          -1.9394    2.0043    0.3726 H       1  UNL1        0.0000
     35 H          -2.1182   -2.6795    0.5478 H       1  UNL1        0.0000
     36 H           2.4631   -2.5556    0.9443 H       1  UNL1        0.0000
     37 H           0.1567    3.1388   -0.9612 H       1  UNL1        0.0000
     38 H           4.1333    4.0229   -0.9310 H       1  UNL1        0.0000
     39 H           5.9118    2.5835   -0.4076 H       1  UNL1        0.0000
     40 H           7.7820    0.9979   -0.0272 H       1  UNL1        0.0000
     41 H           8.3173   -1.5945    0.2956 H       1  UNL1        0.0000
     42 H           4.0969   -3.1666   -0.0149 H       1  UNL1        0.0000
     43 H          -4.1759   -2.2183   -1.8236 H       1  UNL1        0.0000
     44 H          -6.6112   -2.3668   -2.0080 H       1  UNL1        0.0000
     45 H          -8.1819   -1.0557   -0.5267 H       1  UNL1        0.0000
     46 H          -8.0259    0.8279    1.6787 H       1  UNL1        0.0000
     47 H          -6.0807    1.8293    2.9130 H       1  UNL1        0.0000
     48 H          -3.8280    1.1071    2.1006 H       1  UNL1        0.0000
@<TRIPOS>BOND
     1     1     2    1
     2     2     3    2
     3     3     4    1
     4     4     5   ar
     5     5     6   ar
     6     6     7   ar
     7     7     8   ar
     8     8     9   ar
     9     8    10   ar
    10    10    11   ar
    11    11    12   ar
    12    12    13   ar
    13    13    14   ar
    14    14    15   ar
    15    15    16   ar
    16    16    17   ar
    17    17    18   ar
    18    18    19   ar
    19    19    20   ar
    20    20    21   ar
    21    21    22   ar
    22    22    23   ar
    23     2    24    1
    24    24    25   ar
    25    25    26   ar
    26    26    27   ar
    27    27    28   ar
    28    28    29   ar
    29    29    30   ar
    30    30    31   ar
    31    31    32   ar
    32     9     1    1
    33    14    10   ar
    34    23    15   ar
    35    32    24   ar
    36     9     4   ar
    37    22    18   ar
    38    32    28   ar
    39    23     7   ar
    40     1    33    1
    41     1    34    1
    42     3    35    1
    43     6    36    1
    44    11    37    1
    45    13    38    1
    46    16    39    1
    47    17    40    1
    48    19    41    1
    49    21    42    1
    50    25    43    1
    51    26    44    1
    52    27    45    1
    53    29    46    1
    54    30    47    1
    55    31    48    1
