@<TRIPOS>MOLECULE
*****
 38 43 0 0 0
SMALL
GASTEIGER

@<TRIPOS>ATOM
      1 SI         -5.1052    0.4911    0.3762 Si      1  UNL1        0.0000
      2 C          -5.2742    2.3661    0.7409 C.2     1  UNL1        0.0000
      3 C          -4.0679    2.9687    0.8104 C.2     1  UNL1        0.0000
      4 C          -3.0097    2.0437    0.5936 C.ar    1  UNL1        0.0000
      5 O          -1.6632    2.2330    0.5789 O.2     1  UNL1        0.0000
      6 C          -1.0937    1.0147    0.3246 C.ar    1  UNL1        0.0000
      7 C           0.2593    0.7582    0.2247 C.ar    1  UNL1        0.0000
      8 SI          1.6313    1.9633    0.4033 Si      1  UNL1        0.0000
      9 C           2.8163    0.5311    0.0854 C.2     1  UNL1        0.0000
     10 C           2.1794   -0.6419   -0.1149 C.2     1  UNL1        0.0000
     11 C           0.6982   -0.5569   -0.0431 C.ar    1  UNL1        0.0000
     12 C          -0.2257   -1.6093   -0.2094 C.ar    1  UNL1        0.0000
     13 C           0.1553   -2.9425   -0.4786 C.ar    1  UNL1        0.0000
     14 C          -0.7918   -3.9573   -0.6368 C.ar    1  UNL1        0.0000
     15 C          -2.1462   -3.6690   -0.5307 C.ar    1  UNL1        0.0000
     16 C          -2.5617   -2.3647   -0.2658 C.ar    1  UNL1        0.0000
     17 C          -1.6217   -1.3239   -0.1023 C.ar    1  UNL1        0.0000
     18 C          -2.0610    0.0113    0.1694 C.ar    1  UNL1        0.0000
     19 C          -3.2619    0.7058    0.3475 C.ar    1  UNL1        0.0000
     20 C           4.2211    0.7173    0.0685 C.ar    1  UNL1        0.0000
     21 C           5.2469   -0.2019   -0.1452 C.ar    1  UNL1        0.0000
     22 C           6.4832    0.4812   -0.0608 C.ar    1  UNL1        0.0000
     23 C           6.1676    1.7878    0.2004 C.ar    1  UNL1        0.0000
     24 O           4.8255    1.9416    0.2797 O.2     1  UNL1        0.0000
     25 H          -5.6142   -0.3149    1.5132 H       1  UNL1        0.0000
     26 H          -5.7069    0.1533   -0.9373 H       1  UNL1        0.0000
     27 H          -6.2448    2.8190    0.8641 H       1  UNL1        0.0000
     28 H          -3.8968    4.0186    1.0045 H       1  UNL1        0.0000
     29 H           1.7559    2.5057    1.7830 H       1  UNL1        0.0000
     30 H           1.6633    2.9769   -0.6851 H       1  UNL1        0.0000
     31 H           2.6758   -1.5803   -0.3127 H       1  UNL1        0.0000
     32 H           1.2033   -3.2144   -0.5700 H       1  UNL1        0.0000
     33 H          -0.4667   -4.9739   -0.8434 H       1  UNL1        0.0000
     34 H          -2.8819   -4.4596   -0.6541 H       1  UNL1        0.0000
     35 H          -3.6269   -2.1778   -0.1899 H       1  UNL1        0.0000
     36 H           5.1127   -1.2565   -0.3415 H       1  UNL1        0.0000
     37 H           7.4761    0.0708   -0.1761 H       1  UNL1        0.0000
     38 H           6.7508    2.6855    0.3501 H       1  UNL1        0.0000
@<TRIPOS>BOND
     1     1     2    1
     2     2     3    2
     3     3     4    1
     4     4     5   ar
     5     5     6   ar
     6     6     7   ar
     7     7     8    1
     8     8     9    1
     9     9    10    2
    10    10    11    1
    11    11    12   ar
    12    12    13   ar
    13    13    14   ar
    14    14    15   ar
    15    15    16   ar
    16    16    17   ar
    17    17    18   ar
    18    18    19   ar
    19     9    20    1
    20    20    21   ar
    21    21    22   ar
    22    22    23   ar
    23    23    24   ar
    24    19     1    1
    25    24    20   ar
    26    19     4   ar
    27    18     6   ar
    28    11     7   ar
    29    17    12   ar
    30     1    25    1
    31     1    26    1
    32     2    27    1
    33     3    28    1
    34     8    29    1
    35     8    30    1
    36    10    31    1
    37    13    32    1
    38    14    33    1
    39    15    34    1
    40    16    35    1
    41    21    36    1
    42    22    37    1
    43    23    38    1
