@<TRIPOS>MOLECULE
*****
 36 42 0 0 0
SMALL
GASTEIGER

@<TRIPOS>ATOM
      1 SI         -5.7937    0.5923   -0.0525 Si      1  UNL1        0.0000
      2 C          -6.2603   -1.2605    0.2684 C.2     1  UNL1        0.0000
      3 C          -5.1659   -2.0489    0.3512 C.2     1  UNL1        0.0000
      4 C          -3.9701   -1.2985    0.1795 C.ar    1  UNL1        0.0000
      5 O          -2.6555   -1.6976    0.1901 O.2     1  UNL1        0.0000
      6 C          -1.8930   -0.5718   -0.0251 C.ar    1  UNL1        0.0000
      7 C          -0.5130   -0.4751   -0.0982 C.ar    1  UNL1        0.0000
      8 SI          0.7500   -1.7969    0.0644 Si      1  UNL1        0.0000
      9 C           2.0817   -0.4529   -0.2140 C.2     1  UNL1        0.0000
     10 C           1.5580    0.7804   -0.3867 C.2     1  UNL1        0.0000
     11 C           0.0938    0.7838   -0.3289 C.ar    1  UNL1        0.0000
     12 C          -0.7365    1.9173   -0.4764 C.ar    1  UNL1        0.0000
     13 N          -0.3711    3.1967   -0.6944 N.ar    1  UNL1        0.0000
     14 S          -1.7863    4.0944   -0.7834 S.2     1  UNL1        0.0000
     15 N          -2.9411    2.8976   -0.5424 N.ar    1  UNL1        0.0000
     16 C          -2.1936    1.8147   -0.3996 C.ar    1  UNL1        0.0000
     17 C          -2.7397    0.5154   -0.1667 C.ar    1  UNL1        0.0000
     18 C          -4.0265    0.0698   -0.0408 C.ar    1  UNL1        0.0000
     19 C           3.4712   -0.7234   -0.1876 C.ar    1  UNL1        0.0000
     20 S           4.1750   -2.0135   -1.1186 S.2     1  UNL1        0.0000
     21 C           5.7786   -1.6762   -0.5963 C.ar    1  UNL1        0.0000
     22 C           5.7851   -0.6126    0.2562 C.ar    1  UNL1        0.0000
     23 S           7.1414    0.1984    1.1194 S.2     1  UNL1        0.0000
     24 C           5.8931    1.2487    1.7747 C.ar    1  UNL1        0.0000
     25 C           4.5821    0.9857    1.3606 C.ar    1  UNL1        0.0000
     26 C           4.5009   -0.1094    0.4570 C.ar    1  UNL1        0.0000
     27 H          -6.2231    1.4139    1.1063 H       1  UNL1        0.0000
     28 H          -6.3265    1.0109   -1.3727 H       1  UNL1        0.0000
     29 H          -7.2952   -1.5493    0.3582 H       1  UNL1        0.0000
     30 H          -5.1696   -3.1161    0.5248 H       1  UNL1        0.0000
     31 H           0.8359   -2.3674    1.4337 H       1  UNL1        0.0000
     32 H           0.7156   -2.7827   -1.0465 H       1  UNL1        0.0000
     33 H           2.1178    1.6918   -0.5543 H       1  UNL1        0.0000
     34 H           6.6309   -2.2537   -0.9265 H       1  UNL1        0.0000
     35 H           6.2122    2.0269    2.4548 H       1  UNL1        0.0000
     36 H           3.7375    1.5679    1.7083 H       1  UNL1        0.0000
@<TRIPOS>BOND
     1     1     2    1
     2     2     3    2
     3     3     4    1
     4     4     5   ar
     5     5     6   ar
     6     6     7   ar
     7     7     8    1
     8     8     9    1
     9     9    10    2
    10    10    11    1
    11    11    12   ar
    12    12    13   ar
    13    13    14   ar
    14    14    15   ar
    15    15    16   ar
    16    16    17   ar
    17    17    18   ar
    18     9    19    1
    19    19    20   ar
    20    20    21   ar
    21    21    22   ar
    22    22    23   ar
    23    23    24   ar
    24    24    25   ar
    25    25    26   ar
    26    18     1    1
    27    26    19   ar
    28    18     4   ar
    29    26    22   ar
    30    17     6   ar
    31    11     7   ar
    32    16    12   ar
    33     1    27    1
    34     1    28    1
    35     2    29    1
    36     3    30    1
    37     8    31    1
    38     8    32    1
    39    10    33    1
    40    21    34    1
    41    24    35    1
    42    25    36    1
