@<TRIPOS>MOLECULE
*****
 35 40 0 0 0
SMALL
GASTEIGER

@<TRIPOS>ATOM
      1 SI         -6.0332   -0.3900   -0.5489 Si      1  UNL1        0.0000
      2 C          -6.2650   -0.9314    1.2849 C.2     1  UNL1        0.0000
      3 C          -5.0847   -1.0109    1.9379 C.2     1  UNL1        0.0000
      4 C          -3.9963   -0.6717    1.0884 C.ar    1  UNL1        0.0000
      5 O          -2.6554   -0.6203    1.3331 O.2     1  UNL1        0.0000
      6 C          -2.0557   -0.2349    0.1625 C.ar    1  UNL1        0.0000
      7 C          -0.7129   -0.0532   -0.0569 C.ar    1  UNL1        0.0000
      8 SI          0.7212   -0.2394    1.0356 Si      1  UNL1        0.0000
      9 C           1.8216    0.2925   -0.4412 C.2     1  UNL1        0.0000
     10 C           1.0791    0.5426   -1.5438 C.2     1  UNL1        0.0000
     11 C          -0.3642    0.3433   -1.3437 C.ar    1  UNL1        0.0000
     12 N          -1.2271    0.5590   -2.3539 N.ar    1  UNL1        0.0000
     13 C          -2.5534    0.3702   -2.1162 C.ar    1  UNL1        0.0000
     14 C          -3.0014   -0.0307   -0.8512 C.ar    1  UNL1        0.0000
     15 C          -4.2108   -0.3162   -0.2303 C.ar    1  UNL1        0.0000
     16 C           3.2655    0.4706   -0.3271 C.ar    1  UNL1        0.0000
     17 C           3.9117    1.6531   -0.7581 C.ar    1  UNL1        0.0000
     18 C           5.3083    1.8634   -0.6675 C.ar    1  UNL1        0.0000
     19 C           6.1931    0.9093   -0.1413 C.ar    1  UNL1        0.0000
     20 C           5.6135   -0.3031    0.3019 C.ar    1  UNL1        0.0000
     21 N           6.2857   -1.3375    0.8297 N.ar    1  UNL1        0.0000
     22 S           5.1583   -2.5067    1.1665 S.2     1  UNL1        0.0000
     23 N           3.7682   -1.7527    0.6706 N.ar    1  UNL1        0.0000
     24 C           4.1197   -0.5384    0.2108 C.ar    1  UNL1        0.0000
     25 H          -6.6698    0.9280   -0.7897 H       1  UNL1        0.0000
     26 H          -6.4549   -1.4722   -1.4715 H       1  UNL1        0.0000
     27 H          -7.2500   -1.1312    1.6756 H       1  UNL1        0.0000
     28 H          -4.9542   -1.2937    2.9735 H       1  UNL1        0.0000
     29 H           0.9420   -1.6422    1.4674 H       1  UNL1        0.0000
     30 H           0.7878    0.7726    2.1227 H       1  UNL1        0.0000
     31 H           1.4493    0.8708   -2.5046 H       1  UNL1        0.0000
     32 H          -3.2183    0.5491   -2.9535 H       1  UNL1        0.0000
     33 H           3.3069    2.4584   -1.1793 H       1  UNL1        0.0000
     34 H           5.7147    2.8107   -1.0233 H       1  UNL1        0.0000
     35 H           7.2606    1.0827   -0.0785 H       1  UNL1        0.0000
@<TRIPOS>BOND
     1     1     2    1
     2     2     3    2
     3     3     4    1
     4     4     5   ar
     5     5     6   ar
     6     6     7   ar
     7     7     8    1
     8     8     9    1
     9     9    10    2
    10    10    11    1
    11    11    12   ar
    12    12    13   ar
    13    13    14   ar
    14    14    15   ar
    15     9    16    1
    16    16    17   ar
    17    17    18   ar
    18    18    19   ar
    19    19    20   ar
    20    20    21   ar
    21    21    22   ar
    22    22    23   ar
    23    23    24   ar
    24    15     1    1
    25    24    16   ar
    26    15     4   ar
    27    24    20   ar
    28    14     6   ar
    29    11     7   ar
    30     1    25    1
    31     1    26    1
    32     2    27    1
    33     3    28    1
    34     8    29    1
    35     8    30    1
    36    10    31    1
    37    13    32    1
    38    17    33    1
    39    18    34    1
    40    19    35    1
