@<TRIPOS>MOLECULE
*****
 34 39 0 0 0
SMALL
GASTEIGER

@<TRIPOS>ATOM
      1 SI         -5.0944   -0.9958   -1.9410 Si      1  UNL1        0.0000
      2 C          -6.5720   -0.7420   -0.7504 C.2     1  UNL1        0.0000
      3 C          -6.1806   -0.2605    0.4495 C.2     1  UNL1        0.0000
      4 C          -4.7683   -0.0685    0.5114 C.ar    1  UNL1        0.0000
      5 S          -3.8771    0.5190    1.8387 S.2     1  UNL1        0.0000
      6 C          -2.4025    0.3601    0.9112 C.ar    1  UNL1        0.0000
      7 C          -2.6252   -0.1234   -0.3511 C.ar    1  UNL1        0.0000
      8 N          -1.4225   -0.2146   -1.0019 N.ar    1  UNL1        0.0000
      9 C          -0.4260    0.2116   -0.1540 C.ar    1  UNL1        0.0000
     10 C           0.9562    0.2972   -0.3755 C.ar    1  UNL1        0.0000
     11 C           1.7752    0.7693    0.6658 C.ar    1  UNL1        0.0000
     12 C           1.2018    1.1444    1.8880 C.ar    1  UNL1        0.0000
     13 C          -0.1802    1.0570    2.1015 C.ar    1  UNL1        0.0000
     14 C          -0.9996    0.5832    1.0632 C.ar    1  UNL1        0.0000
     15 C           3.2160    0.8693    0.4694 C.ar    1  UNL1        0.0000
     16 S           4.0609    2.3686    0.5872 S.2     1  UNL1        0.0000
     17 C           5.5850    1.6497    0.2272 C.ar    1  UNL1        0.0000
     18 C           5.3865    0.3260    0.0399 C.ar    1  UNL1        0.0000
     19 C           6.2538   -0.7487   -0.2694 C.ar    1  UNL1        0.0000
     20 C           5.5772   -1.9706   -0.3589 C.ar    1  UNL1        0.0000
     21 S           3.8414   -1.9248   -0.0771 S.2     1  UNL1        0.0000
     22 C           4.0805   -0.1492    0.1665 C.ar    1  UNL1        0.0000
     23 C          -3.9816   -0.3698   -0.5818 C.ar    1  UNL1        0.0000
     24 H          -4.9078   -2.4311   -2.2678 H       1  UNL1        0.0000
     25 H          -5.1885   -0.0926   -3.1145 H       1  UNL1        0.0000
     26 H          -7.5763   -0.9766   -1.0649 H       1  UNL1        0.0000
     27 H          -6.8464   -0.0416    1.2749 H       1  UNL1        0.0000
     28 H          -1.3155   -0.5464   -1.9509 H       1  UNL1        0.0000
     29 H           1.3816    0.0092   -1.3327 H       1  UNL1        0.0000
     30 H           1.8306    1.5060    2.6995 H       1  UNL1        0.0000
     31 H          -0.6089    1.3497    3.0554 H       1  UNL1        0.0000
     32 H           6.4919    2.2357    0.1828 H       1  UNL1        0.0000
     33 H           7.3228   -0.6638   -0.4216 H       1  UNL1        0.0000
     34 H           6.0120   -2.9359   -0.5803 H       1  UNL1        0.0000
@<TRIPOS>BOND
     1     1     2    1
     2     2     3    2
     3     3     4    1
     4     4     5   ar
     5     5     6   ar
     6     6     7   ar
     7     7     8   ar
     8     8     9   ar
     9     9    10   ar
    10    10    11   ar
    11    11    12   ar
    12    12    13   ar
    13    13    14   ar
    14    11    15    1
    15    15    16   ar
    16    16    17   ar
    17    17    18   ar
    18    18    19   ar
    19    19    20   ar
    20    20    21   ar
    21    21    22   ar
    22     7    23   ar
    23    23     1    1
    24    23     4   ar
    25    14     6   ar
    26    22    15   ar
    27    14     9   ar
    28    22    18   ar
    29     1    24    1
    30     1    25    1
    31     2    26    1
    32     3    27    1
    33     8    28    1
    34    10    29    1
    35    12    30    1
    36    13    31    1
    37    17    32    1
    38    19    33    1
    39    20    34    1
