@<TRIPOS>MOLECULE
*****
 39 44 0 0 0
SMALL
GASTEIGER

@<TRIPOS>ATOM
      1 SI          5.9778   -0.1851   -1.4109 Si      1  UNL1        0.0000
      2 C           6.9013    0.3532    0.1777 C.2     1  UNL1        0.0000
      3 C           6.0505    0.6236    1.1910 C.2     1  UNL1        0.0000
      4 C           4.6934    0.4357    0.8060 C.ar    1  UNL1        0.0000
      5 S           3.3056    0.6523    1.7325 S.2     1  UNL1        0.0000
      6 C           2.2454    0.1917    0.4192 C.ar    1  UNL1        0.0000
      7 C           2.9939   -0.1268   -0.7335 C.ar    1  UNL1        0.0000
      8 C           2.3085   -0.5189   -1.8893 C.ar    1  UNL1        0.0000
      9 N           0.9607   -0.5983   -1.9262 N.ar    1  UNL1        0.0000
     10 C           0.2304   -0.3016   -0.8498 C.ar    1  UNL1        0.0000
     11 C          -1.1788   -0.4135   -0.9867 C.ar    1  UNL1        0.0000
     12 C          -2.1501   -0.1466    0.0172 C.ar    1  UNL1        0.0000
     13 C          -3.5889   -0.2734   -0.1799 C.ar    1  UNL1        0.0000
     14 C          -4.4421    0.8335   -0.0455 C.ar    1  UNL1        0.0000
     15 C          -5.8191    0.7096   -0.2481 C.ar    1  UNL1        0.0000
     16 C          -6.3643   -0.5247   -0.5925 C.ar    1  UNL1        0.0000
     17 C          -5.5339   -1.6335   -0.7367 C.ar    1  UNL1        0.0000
     18 C          -4.1570   -1.5073   -0.5344 C.ar    1  UNL1        0.0000
     19 C          -1.5227    0.2446    1.2031 C.ar    1  UNL1        0.0000
     20 C          -2.1324    0.5461    2.3968 C.ar    1  UNL1        0.0000
     21 N          -1.1401    0.8671    3.2910 N.ar    1  UNL1        0.0000
     22 C           0.0949    0.7618    2.6867 C.ar    1  UNL1        0.0000
     23 C          -0.1033    0.3677    1.3841 C.ar    1  UNL1        0.0000
     24 C           0.8405    0.1071    0.3743 C.ar    1  UNL1        0.0000
     25 C           4.3655    0.0266   -0.4622 C.ar    1  UNL1        0.0000
     26 H           6.1681    0.8016   -2.5019 H       1  UNL1        0.0000
     27 H           6.2894   -1.5925   -1.7612 H       1  UNL1        0.0000
     28 H           7.9780    0.4124    0.1928 H       1  UNL1        0.0000
     29 H           6.3502    0.9450    2.1806 H       1  UNL1        0.0000
     30 H           2.8148   -0.7788   -2.8129 H       1  UNL1        0.0000
     31 H          -1.5447   -0.7263   -1.9674 H       1  UNL1        0.0000
     32 H          -4.0314    1.8079    0.2123 H       1  UNL1        0.0000
     33 H          -6.4628    1.5786   -0.1406 H       1  UNL1        0.0000
     34 H          -7.4349   -0.6220   -0.7514 H       1  UNL1        0.0000
     35 H          -5.9553   -2.5981   -1.0071 H       1  UNL1        0.0000
     36 H          -3.5244   -2.3856   -0.6479 H       1  UNL1        0.0000
     37 H          -3.1709    0.5589    2.7000 H       1  UNL1        0.0000
     38 H          -1.2911    1.1321    4.2558 H       1  UNL1        0.0000
     39 H           0.9790    0.9761    3.2677 H       1  UNL1        0.0000
@<TRIPOS>BOND
     1     1     2    1
     2     2     3    2
     3     3     4    1
     4     4     5   ar
     5     5     6   ar
     6     6     7   ar
     7     7     8   ar
     8     8     9   ar
     9     9    10   ar
    10    10    11   ar
    11    11    12   ar
    12    12    13    1
    13    13    14   ar
    14    14    15   ar
    15    15    16   ar
    16    16    17   ar
    17    17    18   ar
    18    12    19   ar
    19    19    20   ar
    20    20    21   ar
    21    21    22   ar
    22    22    23   ar
    23    23    24   ar
    24     7    25   ar
    25    25     1    1
    26    25     4   ar
    27    24     6   ar
    28    24    10   ar
    29    18    13   ar
    30    23    19   ar
    31     1    26    1
    32     1    27    1
    33     2    28    1
    34     3    29    1
    35     8    30    1
    36    11    31    1
    37    14    32    1
    38    15    33    1
    39    16    34    1
    40    17    35    1
    41    18    36    1
    42    20    37    1
    43    21    38    1
    44    22    39    1
