@<TRIPOS>MOLECULE
*****
 38 44 0 0 0
SMALL
GASTEIGER

@<TRIPOS>ATOM
      1 SI         -5.8089    1.3721    1.5545 Si      1  UNL1        0.0000
      2 C          -6.8970    0.0410    0.7128 C.2     1  UNL1        0.0000
      3 C          -6.1609   -0.8415    0.0036 C.2     1  UNL1        0.0000
      4 C          -4.7707   -0.5454    0.0718 C.ar    1  UNL1        0.0000
      5 S          -3.4914   -1.3669   -0.6503 S.2     1  UNL1        0.0000
      6 C          -2.2987   -0.2730    0.0110 C.ar    1  UNL1        0.0000
      7 C          -2.9158    0.7265    0.7912 C.ar    1  UNL1        0.0000
      8 C          -2.1067    1.6936    1.3995 C.ar    1  UNL1        0.0000
      9 N          -0.7623    1.6891    1.2572 N.ar    1  UNL1        0.0000
     10 C          -0.1546    0.7534    0.5269 C.ar    1  UNL1        0.0000
     11 C           1.2640    0.8268    0.4359 C.ar    1  UNL1        0.0000
     12 C           2.1256   -0.0534   -0.2849 C.ar    1  UNL1        0.0000
     13 C           3.5713    0.0572   -0.3650 C.ar    1  UNL1        0.0000
     14 N           4.1923   -0.2111   -1.5647 N.ar    1  UNL1        0.0000
     15 C           5.5497   -0.1075   -1.7160 C.ar    1  UNL1        0.0000
     16 C           6.4780    0.2570   -0.7492 C.ar    1  UNL1        0.0000
     17 C           5.8989    0.5364    0.5015 C.ar    1  UNL1        0.0000
     18 N           6.5756    0.9054    1.6007 N.ar    1  UNL1        0.0000
     19 S           5.4501    1.1056    2.8029 S.2     1  UNL1        0.0000
     20 N           4.0568    0.7362    1.9848 N.ar    1  UNL1        0.0000
     21 C           4.4098    0.4403    0.7197 C.ar    1  UNL1        0.0000
     22 C           1.3553   -1.0330   -0.9181 C.ar    1  UNL1        0.0000
     23 C           1.7910   -2.0738   -1.6985 C.ar    1  UNL1        0.0000
     24 O           0.7271   -2.8162   -2.1174 O.2     1  UNL1        0.0000
     25 C          -0.4011   -2.2461   -1.5988 C.ar    1  UNL1        0.0000
     26 C          -0.0734   -1.1450   -0.8474 C.ar    1  UNL1        0.0000
     27 C          -0.8992   -0.2680   -0.1304 C.ar    1  UNL1        0.0000
     28 C          -4.3078    0.5270    0.7929 C.ar    1  UNL1        0.0000
     29 H          -5.8723    1.2631    3.0324 H       1  UNL1        0.0000
     30 H          -6.0828    2.7204    1.0002 H       1  UNL1        0.0000
     31 H          -7.9687    0.0527    0.8323 H       1  UNL1        0.0000
     32 H          -6.5660   -1.6771   -0.5536 H       1  UNL1        0.0000
     33 H          -2.5070    2.4936    2.0136 H       1  UNL1        0.0000
     34 H           1.7241    1.6592    0.9750 H       1  UNL1        0.0000
     35 H           5.8935   -0.3463   -2.7227 H       1  UNL1        0.0000
     36 H           7.5401    0.3185   -0.9364 H       1  UNL1        0.0000
     37 H           2.7574   -2.4166   -2.0411 H       1  UNL1        0.0000
     38 H          -1.3153   -2.7543   -1.8659 H       1  UNL1        0.0000
@<TRIPOS>BOND
     1     1     2    1
     2     2     3    2
     3     3     4    1
     4     4     5   ar
     5     5     6   ar
     6     6     7   ar
     7     7     8   ar
     8     8     9   ar
     9     9    10   ar
    10    10    11   ar
    11    11    12   ar
    12    12    13    1
    13    13    14   ar
    14    14    15   ar
    15    15    16   ar
    16    16    17   ar
    17    17    18   ar
    18    18    19   ar
    19    19    20   ar
    20    20    21   ar
    21    12    22   ar
    22    22    23   ar
    23    23    24   ar
    24    24    25   ar
    25    25    26   ar
    26    26    27   ar
    27     7    28   ar
    28    28     1    1
    29    28     4   ar
    30    27     6   ar
    31    27    10   ar
    32    21    13   ar
    33    26    22   ar
    34    21    17   ar
    35     1    29    1
    36     1    30    1
    37     2    31    1
    38     3    32    1
    39     8    33    1
    40    11    34    1
    41    15    35    1
    42    16    36    1
    43    23    37    1
    44    25    38    1
