@<TRIPOS>MOLECULE
*****
 30 34 0 0 0
SMALL
GASTEIGER

@<TRIPOS>ATOM
      1 SI          4.5514    1.0123    1.9073 Si      1  UNL1        0.0000
      2 C           5.6262    1.9941    0.6632 C.2     1  UNL1        0.0000
      3 C           4.9781    2.2190   -0.5006 C.2     1  UNL1        0.0000
      4 C           3.6632    1.6649   -0.4943 C.ar    1  UNL1        0.0000
      5 S           2.5271    1.7295   -1.7629 S.2     1  UNL1        0.0000
      6 C           1.3933    0.8373   -0.7867 C.ar    1  UNL1        0.0000
      7 C           0.0984    0.3141   -0.8346 C.ar    1  UNL1        0.0000
      8 SI         -1.4030    0.1332   -1.8928 Si      1  UNL1        0.0000
      9 C          -2.2207   -0.8422   -0.3887 C.2     1  UNL1        0.0000
     10 C          -1.3709   -0.9397    0.6647 C.2     1  UNL1        0.0000
     11 C          -0.1433   -0.3003    0.3698 C.ar    1  UNL1        0.0000
     12 N           0.9433   -0.1894    1.1767 N.ar    1  UNL1        0.0000
     13 C           1.8982    0.5163    0.4623 C.ar    1  UNL1        0.0000
     14 C           3.2022    0.9954    0.6216 C.ar    1  UNL1        0.0000
     15 C          -3.5392   -1.3609   -0.4670 C.ar    1  UNL1        0.0000
     16 C          -4.6701   -0.8139   -1.0558 C.ar    1  UNL1        0.0000
     17 C          -5.8250   -1.6421   -0.9436 C.ar    1  UNL1        0.0000
     18 C          -5.5547   -2.8084   -0.2697 C.ar    1  UNL1        0.0000
     19 S          -3.9245   -2.8981    0.2246 S.2     1  UNL1        0.0000
     20 H           5.1426   -0.3190    2.1910 H       1  UNL1        0.0000
     21 H           4.2418    1.8285    3.1074 H       1  UNL1        0.0000
     22 H           6.6259    2.3013    0.9254 H       1  UNL1        0.0000
     23 H           5.3931    2.7536   -1.3459 H       1  UNL1        0.0000
     24 H          -2.1552    1.3905   -2.1510 H       1  UNL1        0.0000
     25 H          -1.2441   -0.7618   -3.0691 H       1  UNL1        0.0000
     26 H          -1.5881   -1.4259    1.6070 H       1  UNL1        0.0000
     27 H           1.0753   -0.5366    2.1178 H       1  UNL1        0.0000
     28 H          -4.6812    0.1540   -1.5430 H       1  UNL1        0.0000
     29 H          -6.8029   -1.3911   -1.3356 H       1  UNL1        0.0000
     30 H          -6.2375   -3.6146   -0.0400 H       1  UNL1        0.0000
@<TRIPOS>BOND
     1     1     2    1
     2     2     3    2
     3     3     4    1
     4     4     5   ar
     5     5     6   ar
     6     6     7   ar
     7     7     8    1
     8     8     9    1
     9     9    10    2
    10    10    11    1
    11    11    12   ar
    12    12    13   ar
    13    13    14   ar
    14     9    15    1
    15    15    16   ar
    16    16    17   ar
    17    17    18   ar
    18    18    19   ar
    19    14     1    1
    20    19    15   ar
    21    14     4   ar
    22    13     6   ar
    23    11     7   ar
    24     1    20    1
    25     1    21    1
    26     2    22    1
    27     3    23    1
    28     8    24    1
    29     8    25    1
    30    10    26    1
    31    12    27    1
    32    16    28    1
    33    17    29    1
    34    18    30    1
