@<TRIPOS>MOLECULE
*****
 36 42 0 0 0
SMALL
GASTEIGER

@<TRIPOS>ATOM
      1 SI          5.6575   -0.1792   -0.3757 Si      1  UNL1        0.0000
      2 C           6.1194    1.6605   -0.5585 C.2     1  UNL1        0.0000
      3 C           5.0283    2.4544   -0.5549 C.2     1  UNL1        0.0000
      4 C           3.8269    1.7014   -0.4153 C.ar    1  UNL1        0.0000
      5 S           2.2367    2.3099   -0.3643 S.2     1  UNL1        0.0000
      6 C           1.5997    0.7362   -0.1924 C.ar    1  UNL1        0.0000
      7 C           0.0979    0.3475   -0.0637 C.ar    1  UNL1        0.0000
      8 S          -1.2473    1.3640   -0.0623 S.2     1  UNL1        0.0000
      9 C          -2.3648    0.0468    0.1195 C.ar    1  UNL1        0.0000
     10 C          -1.6660   -1.1620    0.1753 C.ar    1  UNL1        0.0000
     11 C          -0.2783   -0.9571    0.0692 C.ar    1  UNL1        0.0000
     12 C           0.7732   -1.9290    0.0827 C.ar    1  UNL1        0.0000
     13 C           0.5451   -3.2735    0.2093 C.ar    1  UNL1        0.0000
     14 S           2.0427   -4.1321    0.1848 S.2     1  UNL1        0.0000
     15 C           2.9647   -2.6791    0.0047 C.ar    1  UNL1        0.0000
     16 C           2.1384   -1.5875   -0.0332 C.ar    1  UNL1        0.0000
     17 C           2.5850   -0.2287   -0.1750 C.ar    1  UNL1        0.0000
     18 C           3.8527    0.3185   -0.3017 C.ar    1  UNL1        0.0000
     19 C          -3.8249    0.2532    0.1962 C.ar    1  UNL1        0.0000
     20 C          -4.7316   -0.8146    0.3425 C.ar    1  UNL1        0.0000
     21 N          -6.1044   -0.7830    0.4281 N.ar    1  UNL1        0.0000
     22 C          -6.7691    0.4016    0.3730 C.ar    1  UNL1        0.0000
     23 C          -6.0122    1.5782    0.2273 C.ar    1  UNL1        0.0000
     24 N          -6.5060    2.8248    0.1561 N.ar    1  UNL1        0.0000
     25 S          -5.2038    3.8338   -0.0108 S.2     1  UNL1        0.0000
     26 N          -3.9674    2.7380    0.0003 N.ar    1  UNL1        0.0000
     27 C          -4.4985    1.5086    0.1358 C.ar    1  UNL1        0.0000
     28 H           6.1791   -0.7434    0.8935 H       1  UNL1        0.0000
     29 H           6.0203   -0.9503   -1.5902 H       1  UNL1        0.0000
     30 H           7.1495    1.9663   -0.6498 H       1  UNL1        0.0000
     31 H           5.0477    3.5333   -0.6460 H       1  UNL1        0.0000
     32 H          -2.1392   -2.1282    0.2863 H       1  UNL1        0.0000
     33 H          -0.3819   -3.8186    0.3141 H       1  UNL1        0.0000
     34 H           4.0379   -2.7567   -0.0577 H       1  UNL1        0.0000
     35 H          -4.3589   -1.8370    0.4029 H       1  UNL1        0.0000
     36 H          -7.8485    0.3830    0.4439 H       1  UNL1        0.0000
@<TRIPOS>BOND
     1     1     2    1
     2     2     3    2
     3     3     4    1
     4     4     5   ar
     5     5     6   ar
     6     6     7   ar
     7     7     8   ar
     8     8     9   ar
     9     9    10   ar
    10    10    11   ar
    11    11    12   ar
    12    12    13   ar
    13    13    14   ar
    14    14    15   ar
    15    15    16   ar
    16    16    17   ar
    17    17    18   ar
    18     9    19    1
    19    19    20   ar
    20    20    21   ar
    21    21    22   ar
    22    22    23   ar
    23    23    24   ar
    24    24    25   ar
    25    25    26   ar
    26    26    27   ar
    27    18     1    1
    28    27    19   ar
    29    18     4   ar
    30    27    23   ar
    31    17     6   ar
    32    11     7   ar
    33    16    12   ar
    34     1    28    1
    35     1    29    1
    36     2    30    1
    37     3    31    1
    38    10    32    1
    39    13    33    1
    40    15    34    1
    41    20    35    1
    42    22    36    1
