@<TRIPOS>MOLECULE
*****
 38 43 0 0 0
SMALL
GASTEIGER

@<TRIPOS>ATOM
      1 SI          0.0724   -1.8265   -1.3307 Si      1  UNL1        0.0000
      2 C          -0.7028   -0.4755   -0.3289 C.ar    1  UNL1        0.0000
      3 C           0.2900    0.3996    0.1531 C.ar    1  UNL1        0.0000
      4 N           0.0043    1.4727    0.9117 N.ar    1  UNL1        0.0000
      5 C          -1.2992    1.6973    1.2089 C.ar    1  UNL1        0.0000
      6 C          -2.3801    0.9174    0.8012 C.ar    1  UNL1        0.0000
      7 C          -3.7208    1.2880    1.2013 C.ar    1  UNL1        0.0000
      8 C          -4.8948    0.5869    0.8573 C.ar    1  UNL1        0.0000
      9 C          -4.5820   -0.5120    0.0785 C.ar    1  UNL1        0.0000
     10 C          -5.4999   -1.3990   -0.4198 C.ar    1  UNL1        0.0000
     11 N          -4.7944   -2.3381   -1.1340 N.ar    1  UNL1        0.0000
     12 C          -3.4426   -2.0535   -1.0918 C.ar    1  UNL1        0.0000
     13 C          -3.2737   -0.9143   -0.3395 C.ar    1  UNL1        0.0000
     14 C          -2.0637   -0.2246   -0.0074 C.ar    1  UNL1        0.0000
     15 C           1.6905    0.0749   -0.2229 C.ar    1  UNL1        0.0000
     16 C           1.7642   -1.0983   -1.0261 C.ar    1  UNL1        0.0000
     17 C           2.9737   -1.5939   -1.4971 C.ar    1  UNL1        0.0000
     18 C           4.1437   -0.9179   -1.1696 C.ar    1  UNL1        0.0000
     19 C           4.1220    0.2443   -0.3795 C.ar    1  UNL1        0.0000
     20 C           5.3348    0.8875   -0.0790 C.ar    1  UNL1        0.0000
     21 C           5.3665    2.0415    0.6997 C.ar    1  UNL1        0.0000
     22 C           4.1816    2.5683    1.1890 C.ar    1  UNL1        0.0000
     23 C           2.9666    1.9406    0.8992 C.ar    1  UNL1        0.0000
     24 C           2.8913    0.7655    0.1111 C.ar    1  UNL1        0.0000
     25 H          -0.0761   -3.1749   -0.7232 H       1  UNL1        0.0000
     26 H          -0.3043   -1.7897   -2.7681 H       1  UNL1        0.0000
     27 H          -1.4539    2.5811    1.8247 H       1  UNL1        0.0000
     28 H          -3.8465    2.1798    1.8191 H       1  UNL1        0.0000
     29 H          -5.8848    0.8854    1.1695 H       1  UNL1        0.0000
     30 H          -6.5769   -1.4570   -0.3391 H       1  UNL1        0.0000
     31 H          -5.2044   -3.1248   -1.6208 H       1  UNL1        0.0000
     32 H          -2.7622   -2.7094   -1.6114 H       1  UNL1        0.0000
     33 H           3.0226   -2.4902   -2.1099 H       1  UNL1        0.0000
     34 H           5.0896   -1.3090   -1.5403 H       1  UNL1        0.0000
     35 H           6.2758    0.4899   -0.4535 H       1  UNL1        0.0000
     36 H           6.3134    2.5252    0.9218 H       1  UNL1        0.0000
     37 H           4.1917    3.4683    1.7979 H       1  UNL1        0.0000
     38 H           2.0686    2.3945    1.3072 H       1  UNL1        0.0000
@<TRIPOS>BOND
     1     1     2    1
     2     2     3   ar
     3     3     4   ar
     4     4     5   ar
     5     5     6   ar
     6     6     7   ar
     7     7     8   ar
     8     8     9   ar
     9     9    10   ar
    10    10    11   ar
    11    11    12   ar
    12    12    13   ar
    13    13    14   ar
    14     3    15    1
    15    15    16   ar
    16    16    17   ar
    17    17    18   ar
    18    18    19   ar
    19    19    20   ar
    20    20    21   ar
    21    21    22   ar
    22    22    23   ar
    23    23    24   ar
    24    16     1    1
    25    24    19   ar
    26     2    14   ar
    27    24    15   ar
    28    14     6   ar
    29    13     9   ar
    30     1    25    1
    31     1    26    1
    32     5    27    1
    33     7    28    1
    34     8    29    1
    35    10    30    1
    36    11    31    1
    37    12    32    1
    38    17    33    1
    39    18    34    1
    40    20    35    1
    41    21    36    1
    42    22    37    1
    43    23    38    1
