@<TRIPOS>MOLECULE
*****
 48 55 0 0 0
SMALL
GASTEIGER

@<TRIPOS>ATOM
      1 SI         -0.4095    2.2807    0.4250 Si      1  UNL1        0.0000
      2 C           1.0850    1.2022    0.2575 C.ar    1  UNL1        0.0000
      3 C           2.4642    1.3165    0.1448 C.ar    1  UNL1        0.0000
      4 C           2.9329    0.0278   -0.0758 C.ar    1  UNL1        0.0000
      5 N           1.8277   -0.8155   -0.1013 N.ar    1  UNL1        0.0000
      6 C           0.6871   -0.1131    0.1729 C.ar    1  UNL1        0.0000
      7 C          -0.7477   -0.4634    0.2302 C.ar    1  UNL1        0.0000
      8 C          -1.5582    0.7186    0.2889 C.ar    1  UNL1        0.0000
      9 C          -2.9725    0.6496    0.2477 C.ar    1  UNL1        0.0000
     10 C          -3.9426    1.7109    0.2710 C.ar    1  UNL1        0.0000
     11 C          -3.7590    3.0731    0.3553 C.ar    1  UNL1        0.0000
     12 N          -5.0001    3.6810    0.3386 N.ar    1  UNL1        0.0000
     13 C          -5.9864    2.7326    0.2434 C.ar    1  UNL1        0.0000
     14 C          -5.3545    1.5176    0.2010 C.ar    1  UNL1        0.0000
     15 C          -6.0099    0.3133    0.1025 C.ar    1  UNL1        0.0000
     16 C          -5.0693   -0.7412    0.0868 C.ar    1  UNL1        0.0000
     17 C          -3.6062   -0.6475    0.1583 C.ar    1  UNL1        0.0000
     18 C          -2.7671   -1.8341    0.1600 C.ar    1  UNL1        0.0000
     19 C          -3.3072   -3.1505    0.1091 C.ar    1  UNL1        0.0000
     20 C          -2.5295   -4.3092    0.1588 C.ar    1  UNL1        0.0000
     21 C          -1.1621   -4.2019    0.2805 C.ar    1  UNL1        0.0000
     22 C          -0.5831   -2.9368    0.3216 C.ar    1  UNL1        0.0000
     23 C          -1.3412   -1.7408    0.2287 C.ar    1  UNL1        0.0000
     24 C           4.2817   -0.4461   -0.2881 C.ar    1  UNL1        0.0000
     25 S           4.5925   -2.1324   -0.5473 S.2     1  UNL1        0.0000
     26 C           6.2803   -1.9012   -0.7012 C.ar    1  UNL1        0.0000
     27 C           6.6159   -0.5813   -0.5612 C.ar    1  UNL1        0.0000
     28 N           7.9027   -0.1415   -0.6429 N.ar    1  UNL1        0.0000
     29 C           7.9616    1.2062   -0.4688 C.ar    1  UNL1        0.0000
     30 C           6.8599    2.0368   -0.2372 C.ar    1  UNL1        0.0000
     31 N           5.5680    1.6210   -0.1520 N.ar    1  UNL1        0.0000
     32 C           5.4684    0.2671   -0.3221 C.ar    1  UNL1        0.0000
     33 H          -0.6144    3.2085   -0.7195 H       1  UNL1        0.0000
     34 H          -0.5451    2.9361    1.7530 H       1  UNL1        0.0000
     35 H           3.0660    2.2157    0.1808 H       1  UNL1        0.0000
     36 H           1.8905   -1.7939   -0.3351 H       1  UNL1        0.0000
     37 H          -2.8921    3.7080    0.4269 H       1  UNL1        0.0000
     38 H          -5.1553    4.6797    0.3882 H       1  UNL1        0.0000
     39 H          -7.0303    3.0141    0.2150 H       1  UNL1        0.0000
     40 H          -7.0781    0.1649    0.0474 H       1  UNL1        0.0000
     41 H          -5.5315   -1.7239    0.0136 H       1  UNL1        0.0000
     42 H          -4.3769   -3.3193    0.0382 H       1  UNL1        0.0000
     43 H          -3.0040   -5.2861    0.1234 H       1  UNL1        0.0000
     44 H          -0.5438   -5.0918    0.3545 H       1  UNL1        0.0000
     45 H           0.4871   -2.9115    0.4758 H       1  UNL1        0.0000
     46 H           6.9424   -2.7347   -0.8852 H       1  UNL1        0.0000
     47 H           8.9609    1.6293   -0.5212 H       1  UNL1        0.0000
     48 H           7.0023    3.1063   -0.1094 H       1  UNL1        0.0000
@<TRIPOS>BOND
     1     1     2    1
     2     2     3   ar
     3     3     4   ar
     4     4     5   ar
     5     5     6   ar
     6     6     7    1
     7     7     8   ar
     8     8     9   ar
     9     9    10   ar
    10    10    11   ar
    11    11    12   ar
    12    12    13   ar
    13    13    14   ar
    14    14    15   ar
    15    15    16   ar
    16    16    17   ar
    17    17    18   ar
    18    18    19   ar
    19    19    20   ar
    20    20    21   ar
    21    21    22   ar
    22    22    23   ar
    23     4    24    1
    24    24    25   ar
    25    25    26   ar
    26    26    27   ar
    27    27    28   ar
    28    28    29   ar
    29    29    30   ar
    30    30    31   ar
    31    31    32   ar
    32     8     1    1
    33    17     9   ar
    34    23    18   ar
    35    32    24   ar
    36     6     2   ar
    37    23     7   ar
    38    32    27   ar
    39    14    10   ar
    40     1    33    1
    41     1    34    1
    42     3    35    1
    43     5    36    1
    44    11    37    1
    45    12    38    1
    46    13    39    1
    47    15    40    1
    48    16    41    1
    49    19    42    1
    50    20    43    1
    51    21    44    1
    52    22    45    1
    53    26    46    1
    54    29    47    1
    55    30    48    1
