@<TRIPOS>MOLECULE
*****
 42 49 0 0 0
SMALL
GASTEIGER

@<TRIPOS>ATOM
      1 SI          1.9193    0.1594   -0.8893 Si      1  UNL1        0.0000
      2 C           2.8960    0.6336    0.6299 C.2     1  UNL1        0.0000
      3 C           2.0890    0.8284    1.6897 C.2     1  UNL1        0.0000
      4 C           0.6646    0.6160    1.3941 C.ar    1  UNL1        0.0000
      5 N          -0.2240    0.7757    2.3755 N.ar    1  UNL1        0.0000
      6 C          -1.5274    0.5653    2.0447 C.ar    1  UNL1        0.0000
      7 C          -2.0498    0.1973    0.7853 C.ar    1  UNL1        0.0000
      8 C          -1.0374    0.0407   -0.2308 C.ar    1  UNL1        0.0000
      9 C           0.3290    0.2530    0.0853 C.ar    1  UNL1        0.0000
     10 C          -1.6291   -0.3284   -1.4714 C.ar    1  UNL1        0.0000
     11 C          -1.0129   -0.5687   -2.6766 C.ar    1  UNL1        0.0000
     12 O          -1.9343   -0.8983   -3.6265 O.2     1  UNL1        0.0000
     13 C          -3.1568   -0.8694   -3.0308 C.ar    1  UNL1        0.0000
     14 C          -3.0249   -0.5246   -1.7077 C.ar    1  UNL1        0.0000
     15 C          -4.0603   -0.3896   -0.7657 C.ar    1  UNL1        0.0000
     16 C          -5.4419   -0.6046   -1.0829 C.ar    1  UNL1        0.0000
     17 C          -6.4596   -0.4677   -0.1407 C.ar    1  UNL1        0.0000
     18 C          -6.0453   -0.1019    1.1546 C.ar    1  UNL1        0.0000
     19 N          -6.8818    0.0755    2.1884 N.ar    1  UNL1        0.0000
     20 S          -5.9487    0.4931    3.4871 S.2     1  UNL1        0.0000
     21 N          -4.4470    0.4670    2.7989 N.ar    1  UNL1        0.0000
     22 C          -4.5830    0.1290    1.5034 C.ar    1  UNL1        0.0000
     23 C          -3.5136   -0.0116    0.5256 C.ar    1  UNL1        0.0000
     24 C           4.3028    0.7769    0.6396 C.ar    1  UNL1        0.0000
     25 S           5.0757    2.1390    1.4489 S.2     1  UNL1        0.0000
     26 C           6.6789    1.6516    1.0220 C.ar    1  UNL1        0.0000
     27 C           6.5808    0.5165    0.3112 C.ar    1  UNL1        0.0000
     28 O           7.6153   -0.1966   -0.2101 O.2     1  UNL1        0.0000
     29 C           6.9110   -1.2303   -0.7974 C.ar    1  UNL1        0.0000
     30 C           5.5220   -1.1401   -0.6394 C.ar    1  UNL1        0.0000
     31 C           5.3097    0.0402    0.1010 C.ar    1  UNL1        0.0000
     32 H           1.9716    1.1761   -1.9703 H       1  UNL1        0.0000
     33 H           2.2047   -1.2219   -1.3590 H       1  UNL1        0.0000
     34 H           2.3929    1.1080    2.6892 H       1  UNL1        0.0000
     35 H          -2.1714    0.7191    2.9044 H       1  UNL1        0.0000
     36 H           0.0007   -0.5592   -3.0450 H       1  UNL1        0.0000
     37 H          -3.9855   -1.1136   -3.6804 H       1  UNL1        0.0000
     38 H          -5.7316   -0.8868   -2.0943 H       1  UNL1        0.0000
     39 H          -7.5031   -0.6303   -0.3815 H       1  UNL1        0.0000
     40 H           7.5682    2.1958    1.3035 H       1  UNL1        0.0000
     41 H           7.5379   -1.9620   -1.2904 H       1  UNL1        0.0000
     42 H           4.7992   -1.8514   -1.0118 H       1  UNL1        0.0000
@<TRIPOS>BOND
     1     1     2    1
     2     2     3    2
     3     3     4    1
     4     4     5   ar
     5     5     6   ar
     6     6     7   ar
     7     7     8   ar
     8     8     9   ar
     9     8    10   ar
    10    10    11   ar
    11    11    12   ar
    12    12    13   ar
    13    13    14   ar
    14    14    15   ar
    15    15    16   ar
    16    16    17   ar
    17    17    18   ar
    18    18    19   ar
    19    19    20   ar
    20    20    21   ar
    21    21    22   ar
    22    22    23   ar
    23     2    24    1
    24    24    25   ar
    25    25    26   ar
    26    26    27   ar
    27    27    28   ar
    28    28    29   ar
    29    29    30   ar
    30    30    31   ar
    31     9     1    1
    32    14    10   ar
    33    23    15   ar
    34    31    24   ar
    35     9     4   ar
    36    22    18   ar
    37    31    27   ar
    38    23     7   ar
    39     1    32    1
    40     1    33    1
    41     3    34    1
    42     6    35    1
    43    11    36    1
    44    13    37    1
    45    16    38    1
    46    17    39    1
    47    26    40    1
    48    29    41    1
    49    30    42    1
