@<TRIPOS>MOLECULE
*****
 43 49 0 0 0
SMALL
GASTEIGER

@<TRIPOS>ATOM
      1 SI         -1.3602   -1.7661    1.7485 Si      1  UNL1        0.0000
      2 C           0.2326   -1.1353    0.9804 C.ar    1  UNL1        0.0000
      3 C           1.6060   -1.3205    1.0709 C.ar    1  UNL1        0.0000
      4 C           2.1693   -0.4565    0.1346 C.ar    1  UNL1        0.0000
      5 N           1.1342    0.2181   -0.5015 N.ar    1  UNL1        0.0000
      6 C          -0.0553   -0.1925    0.0191 C.ar    1  UNL1        0.0000
      7 C          -1.4292    0.1528   -0.2398 C.ar    1  UNL1        0.0000
      8 C          -2.4011   -0.5553    0.5647 C.ar    1  UNL1        0.0000
      9 C          -3.8380   -0.3895    0.4946 C.ar    1  UNL1        0.0000
     10 C          -4.7480   -1.1036    1.3006 C.ar    1  UNL1        0.0000
     11 C          -6.1330   -0.9117    1.1996 C.ar    1  UNL1        0.0000
     12 C          -6.6611    0.0009    0.2895 C.ar    1  UNL1        0.0000
     13 C          -5.8102    0.7333   -0.5313 C.ar    1  UNL1        0.0000
     14 C          -4.4132    0.5453   -0.4353 C.ar    1  UNL1        0.0000
     15 C          -3.4370    1.2276   -1.2125 C.ar    1  UNL1        0.0000
     16 C          -3.6298    2.1768   -2.1837 C.ar    1  UNL1        0.0000
     17 O          -2.4226    2.5795   -2.6864 O.2     1  UNL1        0.0000
     18 C          -1.4466    1.8805   -2.0291 C.ar    1  UNL1        0.0000
     19 C          -2.0221    1.0386   -1.1167 C.ar    1  UNL1        0.0000
     20 C           3.5576   -0.2273   -0.2167 C.ar    1  UNL1        0.0000
     21 C           4.0656   -0.3843   -1.5284 C.ar    1  UNL1        0.0000
     22 C           5.4362   -0.1665   -1.8839 C.ar    1  UNL1        0.0000
     23 C           6.4345    0.2327   -0.9691 C.ar    1  UNL1        0.0000
     24 C           5.9270    0.3916    0.3210 C.ar    1  UNL1        0.0000
     25 C           6.7122    0.7841    1.3765 C.ar    1  UNL1        0.0000
     26 S           5.7929    0.9084    2.8231 S.2     1  UNL1        0.0000
     27 C           4.3408    0.4373    2.0303 C.ar    1  UNL1        0.0000
     28 C           4.5486    0.1733    0.6959 C.ar    1  UNL1        0.0000
     29 H          -1.5560   -1.3799    3.1702 H       1  UNL1        0.0000
     30 H          -1.6805   -3.1830    1.4346 H       1  UNL1        0.0000
     31 H           2.1551   -1.9929    1.7182 H       1  UNL1        0.0000
     32 H           1.2634    0.9143   -1.2214 H       1  UNL1        0.0000
     33 H          -4.3980   -1.8297    2.0298 H       1  UNL1        0.0000
     34 H          -6.8021   -1.4824    1.8398 H       1  UNL1        0.0000
     35 H          -7.7370    0.1402    0.2214 H       1  UNL1        0.0000
     36 H          -6.2311    1.4426   -1.2375 H       1  UNL1        0.0000
     37 H          -4.4932    2.6572   -2.6209 H       1  UNL1        0.0000
     38 H          -0.4375    2.1097   -2.3354 H       1  UNL1        0.0000
     39 H           3.3867   -0.7088   -2.3176 H       1  UNL1        0.0000
     40 H           5.7239   -0.3247   -2.9240 H       1  UNL1        0.0000
     41 H           7.4647    0.3913   -1.2592 H       1  UNL1        0.0000
     42 H           7.7692    1.0112    1.3893 H       1  UNL1        0.0000
     43 H           3.4220    0.3860    2.5977 H       1  UNL1        0.0000
@<TRIPOS>BOND
     1     1     2    1
     2     2     3   ar
     3     3     4   ar
     4     4     5   ar
     5     5     6   ar
     6     6     7    1
     7     7     8   ar
     8     8     9   ar
     9     9    10   ar
    10    10    11   ar
    11    11    12   ar
    12    12    13   ar
    13    13    14   ar
    14    14    15   ar
    15    15    16   ar
    16    16    17   ar
    17    17    18   ar
    18    18    19   ar
    19     4    20    1
    20    20    21   ar
    21    21    22   ar
    22    22    23   ar
    23    23    24   ar
    24    24    25   ar
    25    25    26   ar
    26    26    27   ar
    27    27    28   ar
    28     8     1    1
    29    14     9   ar
    30    19    15   ar
    31    28    20   ar
    32     6     2   ar
    33    19     7   ar
    34    28    24   ar
    35     1    29    1
    36     1    30    1
    37     3    31    1
    38     5    32    1
    39    10    33    1
    40    11    34    1
    41    12    35    1
    42    13    36    1
    43    16    37    1
    44    18    38    1
    45    21    39    1
    46    22    40    1
    47    23    41    1
    48    25    42    1
    49    27    43    1
