@<TRIPOS>MOLECULE
*****
 37 42 0 0 0
SMALL
GASTEIGER

@<TRIPOS>ATOM
      1 SI         -0.5278   -1.1764    1.6600 Si      1  UNL1        0.0000
      2 C           1.1485   -0.6515    1.0310 C.ar    1  UNL1        0.0000
      3 C           2.5032   -0.7887    1.3066 C.ar    1  UNL1        0.0000
      4 C           3.1667   -0.0564    0.3253 C.ar    1  UNL1        0.0000
      5 N           2.2112    0.5016   -0.5132 N.ar    1  UNL1        0.0000
      6 C           0.9709    0.1368   -0.0807 C.ar    1  UNL1        0.0000
      7 C          -0.3712    0.4192   -0.5581 C.ar    1  UNL1        0.0000
      8 C          -0.7385    1.1787   -1.6410 C.ar    1  UNL1        0.0000
      9 N          -2.0294    1.3765   -1.9969 N.ar    1  UNL1        0.0000
     10 C          -3.0134    0.8132   -1.2714 C.ar    1  UNL1        0.0000
     11 C          -4.3238    1.0857   -1.7327 C.ar    1  UNL1        0.0000
     12 C          -5.5272    0.6224   -1.1603 C.ar    1  UNL1        0.0000
     13 C          -5.2837   -0.1654   -0.0456 C.ar    1  UNL1        0.0000
     14 C          -6.3124   -0.7246    0.6712 C.ar    1  UNL1        0.0000
     15 S          -5.7181   -1.6426    1.9891 S.2     1  UNL1        0.0000
     16 C          -4.0821   -1.2835    1.5889 C.ar    1  UNL1        0.0000
     17 C          -3.9736   -0.4815    0.4764 C.ar    1  UNL1        0.0000
     18 C          -2.7492   -0.0048   -0.1133 C.ar    1  UNL1        0.0000
     19 C          -1.3854   -0.1908    0.2308 C.ar    1  UNL1        0.0000
     20 C           4.5696    0.1505    0.1235 C.ar    1  UNL1        0.0000
     21 C           5.2409    0.8728   -0.8464 C.ar    1  UNL1        0.0000
     22 C           6.6310    0.7562   -0.5956 C.ar    1  UNL1        0.0000
     23 C           6.7785   -0.0336    0.5204 C.ar    1  UNL1        0.0000
     24 N           5.5271   -0.3945    0.9473 N.ar    1  UNL1        0.0000
     25 H          -0.8012   -2.6312    1.5356 H       1  UNL1        0.0000
     26 H          -0.8909   -0.6089    2.9840 H       1  UNL1        0.0000
     27 H           2.9623   -1.3453    2.1123 H       1  UNL1        0.0000
     28 H           2.4183    1.0831   -1.3123 H       1  UNL1        0.0000
     29 H          -0.0086    1.6667   -2.2772 H       1  UNL1        0.0000
     30 H          -4.4090    1.7176   -2.6199 H       1  UNL1        0.0000
     31 H          -6.4996    0.8692   -1.5648 H       1  UNL1        0.0000
     32 H          -7.3779   -0.6499    0.5012 H       1  UNL1        0.0000
     33 H          -3.3241   -1.7061    2.2254 H       1  UNL1        0.0000
     34 H           4.7911    1.4306   -1.6563 H       1  UNL1        0.0000
     35 H           7.4347    1.2008   -1.1680 H       1  UNL1        0.0000
     36 H           7.6612   -0.3699    1.0472 H       1  UNL1        0.0000
     37 H           5.3320   -0.9760    1.7499 H       1  UNL1        0.0000
@<TRIPOS>BOND
     1     1     2    1
     2     2     3   ar
     3     3     4   ar
     4     4     5   ar
     5     5     6   ar
     6     6     7    1
     7     7     8   ar
     8     8     9   ar
     9     9    10   ar
    10    10    11   ar
    11    11    12   ar
    12    12    13   ar
    13    13    14   ar
    14    14    15   ar
    15    15    16   ar
    16    16    17   ar
    17    17    18   ar
    18    18    19   ar
    19     4    20    1
    20    20    21   ar
    21    21    22   ar
    22    22    23   ar
    23    23    24   ar
    24    19     1    1
    25    24    20   ar
    26     6     2   ar
    27    19     7   ar
    28    18    10   ar
    29    17    13   ar
    30     1    25    1
    31     1    26    1
    32     3    27    1
    33     5    28    1
    34     8    29    1
    35    11    30    1
    36    12    31    1
    37    14    32    1
    38    16    33    1
    39    21    34    1
    40    22    35    1
    41    23    36    1
    42    24    37    1
