@<TRIPOS>MOLECULE
*****
 45 51 0 0 0
SMALL
GASTEIGER

@<TRIPOS>ATOM
      1 SI          5.1464   -1.2485    0.3093 Si      1  UNL1        0.0000
      2 C           3.3506   -0.8590    0.6887 C.ar    1  UNL1        0.0000
      3 C           2.2192   -1.3867    1.2981 C.ar    1  UNL1        0.0000
      4 C           1.2283   -0.4191    1.1457 C.ar    1  UNL1        0.0000
      5 N           1.7700    0.6728    0.4821 N.ar    1  UNL1        0.0000
      6 C           3.0686    0.3938    0.1910 C.ar    1  UNL1        0.0000
      7 C           4.0981    1.1472   -0.4868 C.ar    1  UNL1        0.0000
      8 N           3.8576    2.3659   -0.9864 N.ar    1  UNL1        0.0000
      9 C           4.9273    2.9348   -1.5911 C.ar    1  UNL1        0.0000
     10 C           6.1888    2.3390   -1.7078 C.ar    1  UNL1        0.0000
     11 C           6.3991    1.0660   -1.1747 C.ar    1  UNL1        0.0000
     12 C           5.3268    0.4569   -0.5496 C.ar    1  UNL1        0.0000
     13 C          -0.1322   -0.4244    1.6015 C.ar    1  UNL1        0.0000
     14 S          -0.3674   -0.3113    3.3046 S.2     1  UNL1        0.0000
     15 C          -2.0573   -0.1907    3.1403 C.ar    1  UNL1        0.0000
     16 C          -2.4578   -0.2668    1.8262 C.ar    1  UNL1        0.0000
     17 C          -1.3414   -0.4596    0.9160 C.ar    1  UNL1        0.0000
     18 C          -1.5205   -0.6225   -0.5019 C.ar    1  UNL1        0.0000
     19 C          -0.5014   -0.9008   -1.4564 C.ar    1  UNL1        0.0000
     20 C          -0.7849   -1.0162   -2.8118 C.ar    1  UNL1        0.0000
     21 C          -2.0883   -0.8709   -3.2441 C.ar    1  UNL1        0.0000
     22 C          -3.1102   -0.6293   -2.3183 C.ar    1  UNL1        0.0000
     23 C          -2.8951   -0.5065   -0.9209 C.ar    1  UNL1        0.0000
     24 C          -4.0114   -0.2868    0.0185 C.ar    1  UNL1        0.0000
     25 C          -5.3653   -0.1804   -0.3974 C.ar    1  UNL1        0.0000
     26 C          -6.4368    0.0151    0.4865 C.ar    1  UNL1        0.0000
     27 C          -6.2094    0.1152    1.8479 C.ar    1  UNL1        0.0000
     28 C          -4.9095    0.0224    2.3255 C.ar    1  UNL1        0.0000
     29 C          -3.8194   -0.1741    1.4324 C.ar    1  UNL1        0.0000
     30 H           5.3346   -2.3557   -0.6639 H       1  UNL1        0.0000
     31 H           6.0196   -1.3371    1.5083 H       1  UNL1        0.0000
     32 H           2.0977   -2.3421    1.7924 H       1  UNL1        0.0000
     33 H           1.2840    1.5278    0.2428 H       1  UNL1        0.0000
     34 H           4.7475    3.9255   -2.0008 H       1  UNL1        0.0000
     35 H           6.9930    2.8677   -2.2098 H       1  UNL1        0.0000
     36 H           7.3682    0.5846   -1.2532 H       1  UNL1        0.0000
     37 H          -2.6508   -0.0693    4.0340 H       1  UNL1        0.0000
     38 H           0.5276   -1.0602   -1.1593 H       1  UNL1        0.0000
     39 H           0.0118   -1.2248   -3.5203 H       1  UNL1        0.0000
     40 H          -2.3248   -0.9575   -4.3015 H       1  UNL1        0.0000
     41 H          -4.1074   -0.5441   -2.7401 H       1  UNL1        0.0000
     42 H          -5.6340   -0.2506   -1.4474 H       1  UNL1        0.0000
     43 H          -7.4498    0.0866    0.0978 H       1  UNL1        0.0000
     44 H          -7.0376    0.2661    2.5344 H       1  UNL1        0.0000
     45 H          -4.7525    0.1075    3.3963 H       1  UNL1        0.0000
@<TRIPOS>BOND
     1     1     2    1
     2     2     3   ar
     3     3     4   ar
     4     4     5   ar
     5     5     6   ar
     6     6     7    1
     7     7     8   ar
     8     8     9   ar
     9     9    10   ar
    10    10    11   ar
    11    11    12   ar
    12     4    13    1
    13    13    14   ar
    14    14    15   ar
    15    15    16   ar
    16    16    17   ar
    17    17    18   ar
    18    18    19   ar
    19    19    20   ar
    20    20    21   ar
    21    21    22   ar
    22    22    23   ar
    23    23    24   ar
    24    24    25   ar
    25    25    26   ar
    26    26    27   ar
    27    27    28   ar
    28    28    29   ar
    29    12     1    1
    30    17    13   ar
    31    23    18   ar
    32    29    24   ar
    33     6     2   ar
    34    12     7   ar
    35    29    16   ar
    36     1    30    1
    37     1    31    1
    38     3    32    1
    39     5    33    1
    40     9    34    1
    41    10    35    1
    42    11    36    1
    43    15    37    1
    44    19    38    1
    45    20    39    1
    46    21    40    1
    47    22    41    1
    48    25    42    1
    49    26    43    1
    50    27    44    1
    51    28    45    1
