@<TRIPOS>MOLECULE
*****
 40 46 0 0 0
SMALL
GASTEIGER

@<TRIPOS>ATOM
      1 SI         -0.4626   -1.0517   -1.6373 Si      1  UNL1        0.0000
      2 C           1.1781   -0.3864   -1.0028 C.ar    1  UNL1        0.0000
      3 C           2.5413   -0.4047   -1.2628 C.ar    1  UNL1        0.0000
      4 C           3.1429    0.3799   -0.2728 C.ar    1  UNL1        0.0000
      5 N           2.1286    0.8432    0.5664 N.ar    1  UNL1        0.0000
      6 C           0.9382    0.3768    0.1122 C.ar    1  UNL1        0.0000
      7 C          -0.4075    0.5151    0.5521 C.ar    1  UNL1        0.0000
      8 S          -1.0547    1.3508    1.8434 S.2     1  UNL1        0.0000
      9 C          -2.6686    0.8407    1.4200 C.ar    1  UNL1        0.0000
     10 C          -3.8315    1.1942    2.1274 C.ar    1  UNL1        0.0000
     11 C          -5.0652    0.7221    1.6883 C.ar    1  UNL1        0.0000
     12 C          -5.1657   -0.0922    0.5632 C.ar    1  UNL1        0.0000
     13 C          -6.4249   -0.5523    0.1458 C.ar    1  UNL1        0.0000
     14 C          -6.5549   -1.3685   -0.9763 C.ar    1  UNL1        0.0000
     15 C          -5.4261   -1.7359   -1.6966 C.ar    1  UNL1        0.0000
     16 C          -4.1639   -1.2882   -1.2971 C.ar    1  UNL1        0.0000
     17 C          -4.0001   -0.4591   -0.1633 C.ar    1  UNL1        0.0000
     18 C          -2.7093    0.0184    0.2727 C.ar    1  UNL1        0.0000
     19 C          -1.3744   -0.1367   -0.1876 C.ar    1  UNL1        0.0000
     20 C           4.5479    0.7121   -0.0565 C.ar    1  UNL1        0.0000
     21 C           4.9974    1.9267    0.4795 C.ar    1  UNL1        0.0000
     22 N           6.2921    2.3178    0.7232 N.ar    1  UNL1        0.0000
     23 C           7.3334    1.4879    0.4282 C.ar    1  UNL1        0.0000
     24 C           7.0427    0.2265   -0.1278 C.ar    1  UNL1        0.0000
     25 N           7.9365   -0.7128   -0.4776 N.ar    1  UNL1        0.0000
     26 S           7.0616   -1.9939   -1.0642 S.2     1  UNL1        0.0000
     27 N           5.5182   -1.4147   -0.9033 N.ar    1  UNL1        0.0000
     28 C           5.6080   -0.1770   -0.3795 C.ar    1  UNL1        0.0000
     29 H          -0.8564   -0.5102   -2.9637 H       1  UNL1        0.0000
     30 H          -0.5980   -2.5273   -1.5293 H       1  UNL1        0.0000
     31 H           3.0600   -0.9148   -2.0655 H       1  UNL1        0.0000
     32 H           2.2535    1.4106    1.3938 H       1  UNL1        0.0000
     33 H          -3.7714    1.8286    3.0075 H       1  UNL1        0.0000
     34 H          -5.9554    1.0049    2.2469 H       1  UNL1        0.0000
     35 H          -7.3227   -0.2767    0.6955 H       1  UNL1        0.0000
     36 H          -7.5371   -1.7159   -1.2856 H       1  UNL1        0.0000
     37 H          -5.5236   -2.3727   -2.5722 H       1  UNL1        0.0000
     38 H          -3.3179   -1.6039   -1.8930 H       1  UNL1        0.0000
     39 H           4.2758    2.7005    0.7421 H       1  UNL1        0.0000
     40 H           8.3356    1.8389    0.6352 H       1  UNL1        0.0000
@<TRIPOS>BOND
     1     1     2    1
     2     2     3   ar
     3     3     4   ar
     4     4     5   ar
     5     5     6   ar
     6     6     7    1
     7     7     8   ar
     8     8     9   ar
     9     9    10   ar
    10    10    11   ar
    11    11    12   ar
    12    12    13   ar
    13    13    14   ar
    14    14    15   ar
    15    15    16   ar
    16    16    17   ar
    17    17    18   ar
    18    18    19   ar
    19     4    20    1
    20    20    21   ar
    21    21    22   ar
    22    22    23   ar
    23    23    24   ar
    24    24    25   ar
    25    25    26   ar
    26    26    27   ar
    27    27    28   ar
    28    19     1    1
    29    28    20   ar
    30     6     2   ar
    31    19     7   ar
    32    28    24   ar
    33    18     9   ar
    34    17    12   ar
    35     1    29    1
    36     1    30    1
    37     3    31    1
    38     5    32    1
    39    10    33    1
    40    11    34    1
    41    13    35    1
    42    14    36    1
    43    15    37    1
    44    16    38    1
    45    21    39    1
    46    23    40    1
