@<TRIPOS>MOLECULE
*****
 32 36 0 0 0
SMALL
GASTEIGER

@<TRIPOS>ATOM
      1 SI         -1.1265    2.1319    0.9755 Si      1  UNL1        0.0000
      2 C           0.0832    0.7899    0.2649 C.ar    1  UNL1        0.0000
      3 C           1.4719    0.8230    0.1910 C.ar    1  UNL1        0.0000
      4 C           2.1442   -0.2764   -0.3645 C.ar    1  UNL1        0.0000
      5 C           1.4012   -1.3805   -0.8420 C.ar    1  UNL1        0.0000
      6 C           0.0015   -1.4133   -0.7698 C.ar    1  UNL1        0.0000
      7 C          -0.6538   -0.3296   -0.2153 C.ar    1  UNL1        0.0000
      8 C          -2.0874   -0.1473   -0.0393 C.ar    1  UNL1        0.0000
      9 N          -3.1515   -0.9387   -0.3482 N.ar    1  UNL1        0.0000
     10 C          -4.2961   -0.2632    0.0431 C.ar    1  UNL1        0.0000
     11 C          -5.6986   -0.4897    0.0233 C.ar    1  UNL1        0.0000
     12 C          -6.3543    0.5910    0.5754 C.ar    1  UNL1        0.0000
     13 S          -5.3170    1.8573    1.1097 S.2     1  UNL1        0.0000
     14 C          -3.9433    0.9466    0.5933 C.ar    1  UNL1        0.0000
     15 C          -2.5477    1.0172    0.5393 C.ar    1  UNL1        0.0000
     16 C           3.6059   -0.2688   -0.4504 C.ar    1  UNL1        0.0000
     17 C           4.4879    0.7644   -0.7242 C.ar    1  UNL1        0.0000
     18 C           5.8055    0.2493   -0.6734 C.ar    1  UNL1        0.0000
     19 C           5.7072   -1.0851   -0.3583 C.ar    1  UNL1        0.0000
     20 N           4.3781   -1.3881   -0.2212 N.ar    1  UNL1        0.0000
     21 H          -1.0450    3.3815    0.1749 H       1  UNL1        0.0000
     22 H          -0.9021    2.3131    2.4335 H       1  UNL1        0.0000
     23 H           2.0257    1.6786    0.5671 H       1  UNL1        0.0000
     24 H           1.9124   -2.2241   -1.3004 H       1  UNL1        0.0000
     25 H          -0.5432   -2.2701   -1.1494 H       1  UNL1        0.0000
     26 H          -3.1547   -1.8526   -0.7819 H       1  UNL1        0.0000
     27 H          -6.1930   -1.3710   -0.3631 H       1  UNL1        0.0000
     28 H          -7.4218    0.7121    0.6991 H       1  UNL1        0.0000
     29 H           4.2089    1.7858   -0.9498 H       1  UNL1        0.0000
     30 H           6.7241    0.7951   -0.8452 H       1  UNL1        0.0000
     31 H           6.4654   -1.8431   -0.2153 H       1  UNL1        0.0000
     32 H           4.0131   -2.2953    0.0348 H       1  UNL1        0.0000
@<TRIPOS>BOND
     1     1     2    1
     2     2     3   ar
     3     3     4   ar
     4     4     5   ar
     5     5     6   ar
     6     6     7   ar
     7     7     8    1
     8     8     9   ar
     9     9    10   ar
    10    10    11   ar
    11    11    12   ar
    12    12    13   ar
    13    13    14   ar
    14    14    15   ar
    15     4    16    1
    16    16    17   ar
    17    17    18   ar
    18    18    19   ar
    19    19    20   ar
    20    15     1    1
    21    20    16   ar
    22     7     2   ar
    23    15     8   ar
    24    14    10   ar
    25     1    21    1
    26     1    22    1
    27     3    23    1
    28     5    24    1
    29     6    25    1
    30     9    26    1
    31    11    27    1
    32    12    28    1
    33    17    29    1
    34    18    30    1
    35    19    31    1
    36    20    32    1
