@<TRIPOS>MOLECULE
*****
 38 44 0 0 0
SMALL
GASTEIGER

@<TRIPOS>ATOM
      1 SI         -0.9890   -2.0940   -0.7806 Si      1  UNL1        0.0000
      2 C           0.7241   -1.2574   -0.5020 C.ar    1  UNL1        0.0000
      3 C           2.0677   -1.6038   -0.6796 C.ar    1  UNL1        0.0000
      4 C           2.9012   -0.5518   -0.2897 C.ar    1  UNL1        0.0000
      5 S           1.9642    0.8085    0.2760 S.2     1  UNL1        0.0000
      6 C           0.5217    0.0063    0.0032 C.ar    1  UNL1        0.0000
      7 C          -0.8366    0.3855    0.1939 C.ar    1  UNL1        0.0000
      8 N          -1.4342    1.5210    0.6603 N.ar    1  UNL1        0.0000
      9 C          -2.8159    1.3449    0.6320 C.ar    1  UNL1        0.0000
     10 C          -3.8773    2.2135    1.0066 C.ar    1  UNL1        0.0000
     11 C          -5.2268    1.8067    0.8861 C.ar    1  UNL1        0.0000
     12 C          -5.3579    0.5181    0.3810 C.ar    1  UNL1        0.0000
     13 C          -6.5476   -0.1344    0.1585 C.ar    1  UNL1        0.0000
     14 N          -6.2480   -1.3907   -0.3466 N.ar    1  UNL1        0.0000
     15 C          -4.8790   -1.5562   -0.4525 C.ar    1  UNL1        0.0000
     16 C          -4.3547   -0.3822   -0.0043 C.ar    1  UNL1        0.0000
     17 C          -3.0130    0.0554    0.1287 C.ar    1  UNL1        0.0000
     18 C          -1.8104   -0.5384   -0.1416 C.ar    1  UNL1        0.0000
     19 C           4.3449   -0.5306   -0.3259 C.ar    1  UNL1        0.0000
     20 S           5.3096   -1.8748   -0.8916 S.2     1  UNL1        0.0000
     21 C           6.8215   -1.0685   -0.6172 C.ar    1  UNL1        0.0000
     22 C           6.5438    0.1536   -0.1214 C.ar    1  UNL1        0.0000
     23 C           7.2142    1.3046    0.3166 C.ar    1  UNL1        0.0000
     24 C           6.1974    2.1861    0.6997 C.ar    1  UNL1        0.0000
     25 O           4.9207    1.6833    0.5390 O.2     1  UNL1        0.0000
     26 C           5.2090    0.4474    0.0372 C.ar    1  UNL1        0.0000
     27 H          -1.1691   -3.2833    0.0929 H       1  UNL1        0.0000
     28 H          -1.2389   -2.3704   -2.2197 H       1  UNL1        0.0000
     29 H           2.4240   -2.5513   -1.0646 H       1  UNL1        0.0000
     30 H          -0.9568    2.3538    0.9749 H       1  UNL1        0.0000
     31 H          -3.6546    3.2057    1.3918 H       1  UNL1        0.0000
     32 H          -6.0537    2.4463    1.1632 H       1  UNL1        0.0000
     33 H          -7.5770    0.1619    0.3061 H       1  UNL1        0.0000
     34 H          -6.9358   -2.0871   -0.6014 H       1  UNL1        0.0000
     35 H          -4.4530   -2.4745   -0.8278 H       1  UNL1        0.0000
     36 H           7.7665   -1.5445   -0.8364 H       1  UNL1        0.0000
     37 H           8.2758    1.4996    0.3613 H       1  UNL1        0.0000
     38 H           6.2229    3.1914    1.0997 H       1  UNL1        0.0000
@<TRIPOS>BOND
     1     1     2    1
     2     2     3   ar
     3     3     4   ar
     4     4     5   ar
     5     5     6   ar
     6     6     7    1
     7     7     8   ar
     8     8     9   ar
     9     9    10   ar
    10    10    11   ar
    11    11    12   ar
    12    12    13   ar
    13    13    14   ar
    14    14    15   ar
    15    15    16   ar
    16    16    17   ar
    17    17    18   ar
    18     4    19    1
    19    19    20   ar
    20    20    21   ar
    21    21    22   ar
    22    22    23   ar
    23    23    24   ar
    24    24    25   ar
    25    25    26   ar
    26    18     1    1
    27    26    19   ar
    28     6     2   ar
    29    18     7   ar
    30    26    22   ar
    31    17     9   ar
    32    16    12   ar
    33     1    27    1
    34     1    28    1
    35     3    29    1
    36     8    30    1
    37    10    31    1
    38    11    32    1
    39    13    33    1
    40    14    34    1
    41    15    35    1
    42    21    36    1
    43    23    37    1
    44    24    38    1
