@<TRIPOS>MOLECULE
*****
 37 42 0 0 0
SMALL
GASTEIGER

@<TRIPOS>ATOM
      1 SI          3.1201   -1.5296    0.4277 Si      1  UNL1        0.0000
      2 C           4.5072   -0.2743    0.4290 C.ar    1  UNL1        0.0000
      3 C           5.8868   -0.1876    0.5526 C.ar    1  UNL1        0.0000
      4 C           6.1753    1.1632    0.4383 C.ar    1  UNL1        0.0000
      5 N           4.9984    1.8675    0.2510 N.ar    1  UNL1        0.0000
      6 C           3.9651    0.9778    0.2452 C.ar    1  UNL1        0.0000
      7 C           2.5281    1.1226    0.0917 C.ar    1  UNL1        0.0000
      8 C           1.8064    2.2752   -0.0989 C.ar    1  UNL1        0.0000
      9 N           0.4578    2.2880   -0.2299 N.ar    1  UNL1        0.0000
     10 C          -0.2281    1.1289   -0.1739 C.ar    1  UNL1        0.0000
     11 C          -1.6352    1.2392   -0.3207 C.ar    1  UNL1        0.0000
     12 C          -2.6077    0.1890   -0.3036 C.ar    1  UNL1        0.0000
     13 C          -4.0461    0.4223   -0.4663 C.ar    1  UNL1        0.0000
     14 N          -4.4343    1.6928   -0.6378 N.ar    1  UNL1        0.0000
     15 C          -5.7446    1.8728   -0.7825 C.ar    1  UNL1        0.0000
     16 N          -6.6708    0.9207   -0.7708 N.ar    1  UNL1        0.0000
     17 C          -6.1750   -0.2993   -0.5944 C.ar    1  UNL1        0.0000
     18 N          -4.8906   -0.6117   -0.4381 N.ar    1  UNL1        0.0000
     19 C          -1.9489   -1.0337   -0.1117 C.ar    1  UNL1        0.0000
     20 C          -2.5081   -2.2878   -0.0335 C.ar    1  UNL1        0.0000
     21 N          -1.4936   -3.1930    0.1593 N.ar    1  UNL1        0.0000
     22 C          -0.2827   -2.5400    0.2069 C.ar    1  UNL1        0.0000
     23 C          -0.5256   -1.1965    0.0422 C.ar    1  UNL1        0.0000
     24 C           0.4270   -0.1326    0.0218 C.ar    1  UNL1        0.0000
     25 C           1.8360   -0.1156    0.1555 C.ar    1  UNL1        0.0000
     26 H           2.9131   -2.2034    1.7365 H       1  UNL1        0.0000
     27 H           3.1502   -2.4627   -0.7292 H       1  UNL1        0.0000
     28 H           6.6078   -0.9802    0.7054 H       1  UNL1        0.0000
     29 H           7.1192    1.6905    0.4736 H       1  UNL1        0.0000
     30 H           4.9285    2.8703    0.1388 H       1  UNL1        0.0000
     31 H           2.2800    3.2488   -0.1559 H       1  UNL1        0.0000
     32 H          -2.0081    2.2580   -0.4637 H       1  UNL1        0.0000
     33 H          -6.0870    2.8923   -0.9231 H       1  UNL1        0.0000
     34 H          -6.8842   -1.1197   -0.5758 H       1  UNL1        0.0000
     35 H          -3.5296   -2.6371   -0.0949 H       1  UNL1        0.0000
     36 H          -1.6196   -4.1929    0.2524 H       1  UNL1        0.0000
     37 H           0.6129   -3.1220    0.3543 H       1  UNL1        0.0000
@<TRIPOS>BOND
     1     1     2    1
     2     2     3   ar
     3     3     4   ar
     4     4     5   ar
     5     5     6   ar
     6     6     7    1
     7     7     8   ar
     8     8     9   ar
     9     9    10   ar
    10    10    11   ar
    11    11    12   ar
    12    12    13    1
    13    13    14   ar
    14    14    15   ar
    15    15    16   ar
    16    16    17   ar
    17    17    18   ar
    18    12    19   ar
    19    19    20   ar
    20    20    21   ar
    21    21    22   ar
    22    22    23   ar
    23    23    24   ar
    24    24    25   ar
    25    25     1    1
    26     6     2   ar
    27    25     7   ar
    28    24    10   ar
    29    18    13   ar
    30    23    19   ar
    31     1    26    1
    32     1    27    1
    33     3    28    1
    34     4    29    1
    35     5    30    1
    36     8    31    1
    37    11    32    1
    38    15    33    1
    39    17    34    1
    40    20    35    1
    41    21    36    1
    42    22    37    1
