@<TRIPOS>MOLECULE
*****
 49 56 0 0 0
SMALL
GASTEIGER

@<TRIPOS>ATOM
      1 SI          5.0603   -0.6563   -1.9464 Si      1  UNL1        0.0000
      2 C           6.3065    0.1329   -0.6813 C.ar    1  UNL1        0.0000
      3 C           7.6494    0.4395   -0.8580 C.ar    1  UNL1        0.0000
      4 C           8.3386    1.0076    0.2163 C.ar    1  UNL1        0.0000
      5 C           7.6916    1.2610    1.4390 C.ar    1  UNL1        0.0000
      6 C           6.3387    0.9521    1.6171 C.ar    1  UNL1        0.0000
      7 C           5.6484    0.3890    0.5577 C.ar    1  UNL1        0.0000
      8 C           4.2483   -0.0095    0.5174 C.ar    1  UNL1        0.0000
      9 N           3.2596    0.0442    1.4519 N.ar    1  UNL1        0.0000
     10 C           2.1135   -0.4718    0.8695 C.ar    1  UNL1        0.0000
     11 C           0.7649   -0.7035    1.2501 C.ar    1  UNL1        0.0000
     12 C           0.0611   -1.2500    0.1919 C.ar    1  UNL1        0.0000
     13 S           1.0136   -1.5170   -1.2207 S.2     1  UNL1        0.0000
     14 C           2.3915   -0.8519   -0.4217 C.ar    1  UNL1        0.0000
     15 C           3.7405   -0.5576   -0.6420 C.ar    1  UNL1        0.0000
     16 C          -1.3295   -1.6251    0.2080 C.ar    1  UNL1        0.0000
     17 S          -1.6683   -3.2580    0.6494 S.2     1  UNL1        0.0000
     18 C          -3.3474   -3.0299    0.5045 C.ar    1  UNL1        0.0000
     19 C          -3.6681   -1.7433    0.1374 C.ar    1  UNL1        0.0000
     20 C          -2.4929   -0.9054   -0.0446 C.ar    1  UNL1        0.0000
     21 C          -2.5850    0.4794   -0.4305 C.ar    1  UNL1        0.0000
     22 C          -1.5010    1.3782   -0.6437 C.ar    1  UNL1        0.0000
     23 C          -1.7100    2.7018   -1.0132 C.ar    1  UNL1        0.0000
     24 C          -3.0009    3.1610   -1.1797 C.ar    1  UNL1        0.0000
     25 C          -4.0817    2.2951   -0.9798 C.ar    1  UNL1        0.0000
     26 C          -3.9437    0.9334   -0.6041 C.ar    1  UNL1        0.0000
     27 C          -5.1204    0.0645   -0.4125 C.ar    1  UNL1        0.0000
     28 C          -6.4560    0.5165   -0.5871 C.ar    1  UNL1        0.0000
     29 C          -7.5830   -0.2995   -0.4097 C.ar    1  UNL1        0.0000
     30 C          -7.4335   -1.6255   -0.0444 C.ar    1  UNL1        0.0000
     31 C          -6.1564   -2.1352    0.1438 C.ar    1  UNL1        0.0000
     32 C          -5.0100   -1.3109   -0.0349 C.ar    1  UNL1        0.0000
     33 H           4.8569    0.2493   -3.1074 H       1  UNL1        0.0000
     34 H           5.4852   -2.0352   -2.3028 H       1  UNL1        0.0000
     35 H           8.1589    0.2479   -1.7972 H       1  UNL1        0.0000
     36 H           9.3916    1.2582    0.1073 H       1  UNL1        0.0000
     37 H           8.2535    1.7038    2.2582 H       1  UNL1        0.0000
     38 H           5.8544    1.1532    2.5657 H       1  UNL1        0.0000
     39 H           3.3071    0.3877    2.4024 H       1  UNL1        0.0000
     40 H           0.3360   -0.4827    2.2192 H       1  UNL1        0.0000
     41 H          -3.9963   -3.8692    0.7059 H       1  UNL1        0.0000
     42 H          -0.4708    1.0687   -0.5343 H       1  UNL1        0.0000
     43 H          -0.8640    3.3648   -1.1717 H       1  UNL1        0.0000
     44 H          -3.1798    4.1932   -1.4695 H       1  UNL1        0.0000
     45 H          -5.0619    2.7362   -1.1348 H       1  UNL1        0.0000
     46 H          -6.6656    1.5426   -0.8747 H       1  UNL1        0.0000
     47 H          -8.5771    0.1142   -0.5613 H       1  UNL1        0.0000
     48 H          -8.3044   -2.2600    0.0930 H       1  UNL1        0.0000
     49 H          -6.0621   -3.1782    0.4296 H       1  UNL1        0.0000
@<TRIPOS>BOND
     1     1     2    1
     2     2     3   ar
     3     3     4   ar
     4     4     5   ar
     5     5     6   ar
     6     6     7   ar
     7     7     8    1
     8     8     9   ar
     9     9    10   ar
    10    10    11   ar
    11    11    12   ar
    12    12    13   ar
    13    13    14   ar
    14    14    15   ar
    15    12    16    1
    16    16    17   ar
    17    17    18   ar
    18    18    19   ar
    19    19    20   ar
    20    20    21   ar
    21    21    22   ar
    22    22    23   ar
    23    23    24   ar
    24    24    25   ar
    25    25    26   ar
    26    26    27   ar
    27    27    28   ar
    28    28    29   ar
    29    29    30   ar
    30    30    31   ar
    31    31    32   ar
    32    15     1    1
    33    20    16   ar
    34    26    21   ar
    35    32    27   ar
    36     7     2   ar
    37    15     8   ar
    38    32    19   ar
    39    14    10   ar
    40     1    33    1
    41     1    34    1
    42     3    35    1
    43     4    36    1
    44     5    37    1
    45     6    38    1
    46     9    39    1
    47    11    40    1
    48    18    41    1
    49    22    42    1
    50    23    43    1
    51    24    44    1
    52    25    45    1
    53    28    46    1
    54    29    47    1
    55    30    48    1
    56    31    49    1
