@<TRIPOS>MOLECULE
*****
 38 43 0 0 0
SMALL
GASTEIGER

@<TRIPOS>ATOM
      1 SI         -3.5813   -1.3201    0.7004 Si      1  UNL1        0.0000
      2 C          -4.5601    0.2880    0.3575 C.ar    1  UNL1        0.0000
      3 C          -5.9136    0.5685    0.3716 C.ar    1  UNL1        0.0000
      4 C          -6.2987    1.8755    0.0676 C.ar    1  UNL1        0.0000
      5 C          -5.3194    2.8296   -0.2333 C.ar    1  UNL1        0.0000
      6 N          -3.9872    2.5880   -0.2562 N.ar    1  UNL1        0.0000
      7 C          -3.6578    1.3246    0.0410 C.ar    1  UNL1        0.0000
      8 C          -2.2785    0.8907    0.0640 C.ar    1  UNL1        0.0000
      9 N          -1.1117    1.5654   -0.1685 N.ar    1  UNL1        0.0000
     10 C          -0.0440    0.6871   -0.0153 C.ar    1  UNL1        0.0000
     11 C           1.3568    0.8866   -0.1440 C.ar    1  UNL1        0.0000
     12 C           2.2870   -0.1749    0.0531 C.ar    1  UNL1        0.0000
     13 C           3.7289   -0.0024   -0.0974 C.ar    1  UNL1        0.0000
     14 C           4.5152   -0.8556   -0.8712 C.ar    1  UNL1        0.0000
     15 C           5.8828   -0.6112   -0.9782 C.ar    1  UNL1        0.0000
     16 C           6.4315    0.4806   -0.3195 C.ar    1  UNL1        0.0000
     17 C           5.5839    1.2904    0.4151 C.ar    1  UNL1        0.0000
     18 N           4.2547    1.0784    0.5329 N.ar    1  UNL1        0.0000
     19 C           1.6464   -1.3722    0.4085 C.ar    1  UNL1        0.0000
     20 C           2.2243   -2.5787    0.7411 C.ar    1  UNL1        0.0000
     21 O           1.2623   -3.5146    1.0365 O.2     1  UNL1        0.0000
     22 C           0.0403   -2.9013    0.9188 C.ar    1  UNL1        0.0000
     23 C           0.2679   -1.6135    0.5534 C.ar    1  UNL1        0.0000
     24 C          -0.6200   -0.5376    0.3234 C.ar    1  UNL1        0.0000
     25 C          -1.9822   -0.4240    0.3754 C.ar    1  UNL1        0.0000
     26 H          -3.9086   -2.3688   -0.3002 H       1  UNL1        0.0000
     27 H          -3.7600   -1.7665    2.1062 H       1  UNL1        0.0000
     28 H          -6.6551   -0.1875    0.6081 H       1  UNL1        0.0000
     29 H          -7.3474    2.1557    0.0632 H       1  UNL1        0.0000
     30 H          -5.6032    3.8516   -0.4719 H       1  UNL1        0.0000
     31 H          -1.0464    2.5455   -0.4087 H       1  UNL1        0.0000
     32 H           1.7358    1.8743   -0.4042 H       1  UNL1        0.0000
     33 H           4.0733   -1.6927   -1.4022 H       1  UNL1        0.0000
     34 H           6.5108   -1.2653   -1.5762 H       1  UNL1        0.0000
     35 H           7.4913    0.6997   -0.3816 H       1  UNL1        0.0000
     36 H           5.9606    2.1604    0.9452 H       1  UNL1        0.0000
     37 H           3.2406   -2.9372    0.8244 H       1  UNL1        0.0000
     38 H          -0.8194   -3.5163    1.1364 H       1  UNL1        0.0000
@<TRIPOS>BOND
     1     1     2    1
     2     2     3   ar
     3     3     4   ar
     4     4     5   ar
     5     5     6   ar
     6     6     7   ar
     7     7     8    1
     8     8     9   ar
     9     9    10   ar
    10    10    11   ar
    11    11    12   ar
    12    12    13    1
    13    13    14   ar
    14    14    15   ar
    15    15    16   ar
    16    16    17   ar
    17    17    18   ar
    18    12    19   ar
    19    19    20   ar
    20    20    21   ar
    21    21    22   ar
    22    22    23   ar
    23    23    24   ar
    24    24    25   ar
    25    25     1    1
    26     7     2   ar
    27    25     8   ar
    28    24    10   ar
    29    18    13   ar
    30    23    19   ar
    31     1    26    1
    32     1    27    1
    33     3    28    1
    34     4    29    1
    35     5    30    1
    36     9    31    1
    37    11    32    1
    38    14    33    1
    39    15    34    1
    40    16    35    1
    41    17    36    1
    42    20    37    1
    43    22    38    1
