@<TRIPOS>MOLECULE
*****
 43 49 0 0 0
SMALL
GASTEIGER

@<TRIPOS>ATOM
      1 SI          3.9380   -1.2595   -0.0771 Si      1  UNL1        0.0000
      2 C           4.9454    0.3748   -0.0878 C.ar    1  UNL1        0.0000
      3 C           6.3162    0.5743   -0.0923 C.ar    1  UNL1        0.0000
      4 C           6.7507    1.8938   -0.0996 C.ar    1  UNL1        0.0000
      5 N           5.9320    2.9814   -0.1026 N.ar    1  UNL1        0.0000
      6 C           4.5954    2.7536   -0.0972 C.ar    1  UNL1        0.0000
      7 C           4.0617    1.4838   -0.0903 C.ar    1  UNL1        0.0000
      8 C           2.6694    1.0718   -0.0853 C.ar    1  UNL1        0.0000
      9 N           1.5042    1.7696   -0.0791 N.ar    1  UNL1        0.0000
     10 C           0.4403    0.8779   -0.0762 C.ar    1  UNL1        0.0000
     11 C          -0.9282    1.1588   -0.0761 C.ar    1  UNL1        0.0000
     12 C          -1.8492    0.0945   -0.0677 C.ar    1  UNL1        0.0000
     13 C          -3.2764    0.4339   -0.1035 C.ar    1  UNL1        0.0000
     14 C          -4.0481    0.3701   -1.2895 C.ar    1  UNL1        0.0000
     15 C          -5.4238    0.6946   -1.3490 C.ar    1  UNL1        0.0000
     16 C          -6.1583    1.1169   -0.2291 C.ar    1  UNL1        0.0000
     17 C          -5.4448    1.2084    0.9900 C.ar    1  UNL1        0.0000
     18 N          -5.9615    1.5927    2.1673 N.ar    1  UNL1        0.0000
     19 S          -4.7203    1.5261    3.2676 S.2     1  UNL1        0.0000
     20 N          -3.4726    1.0176    2.3021 N.ar    1  UNL1        0.0000
     21 C          -3.9740    0.8642    1.0635 C.ar    1  UNL1        0.0000
     22 C          -1.3880   -1.2498   -0.0497 C.ar    1  UNL1        0.0000
     23 C          -2.2636   -2.3625   -0.0191 C.ar    1  UNL1        0.0000
     24 C          -1.7930   -3.6774   -0.0068 C.ar    1  UNL1        0.0000
     25 C          -0.4286   -3.9239   -0.0220 C.ar    1  UNL1        0.0000
     26 C           0.4675   -2.8564   -0.0449 C.ar    1  UNL1        0.0000
     27 C           0.0116   -1.5183   -0.0561 C.ar    1  UNL1        0.0000
     28 C           0.9436   -0.4342   -0.0707 C.ar    1  UNL1        0.0000
     29 C           2.3382   -0.2678   -0.0786 C.ar    1  UNL1        0.0000
     30 H           4.1700   -2.0381   -1.3211 H       1  UNL1        0.0000
     31 H           4.1780   -2.0283    1.1712 H       1  UNL1        0.0000
     32 H           7.0254   -0.2444   -0.0899 H       1  UNL1        0.0000
     33 H           7.8127    2.1267   -0.1033 H       1  UNL1        0.0000
     34 H           3.9754    3.6424   -0.0989 H       1  UNL1        0.0000
     35 H           1.4083    2.7752   -0.0746 H       1  UNL1        0.0000
     36 H          -1.2778    2.1882   -0.0807 H       1  UNL1        0.0000
     37 H          -3.5566    0.0514   -2.2111 H       1  UNL1        0.0000
     38 H          -5.9359    0.6131   -2.3083 H       1  UNL1        0.0000
     39 H          -7.2119    1.3624   -0.2875 H       1  UNL1        0.0000
     40 H          -3.3416   -2.2181    0.0053 H       1  UNL1        0.0000
     41 H          -2.4971   -4.5049    0.0194 H       1  UNL1        0.0000
     42 H          -0.0583   -4.9455   -0.0104 H       1  UNL1        0.0000
     43 H           1.5256   -3.0888   -0.0501 H       1  UNL1        0.0000
@<TRIPOS>BOND
     1     1     2    1
     2     2     3   ar
     3     3     4   ar
     4     4     5   ar
     5     5     6   ar
     6     6     7   ar
     7     7     8    1
     8     8     9   ar
     9     9    10   ar
    10    10    11   ar
    11    11    12   ar
    12    12    13    1
    13    13    14   ar
    14    14    15   ar
    15    15    16   ar
    16    16    17   ar
    17    17    18   ar
    18    18    19   ar
    19    19    20   ar
    20    20    21   ar
    21    12    22   ar
    22    22    23   ar
    23    23    24   ar
    24    24    25   ar
    25    25    26   ar
    26    26    27   ar
    27    27    28   ar
    28    28    29   ar
    29    29     1    1
    30     7     2   ar
    31    29     8   ar
    32    28    10   ar
    33    21    13   ar
    34    27    22   ar
    35    21    17   ar
    36     1    30    1
    37     1    31    1
    38     3    32    1
    39     4    33    1
    40     6    34    1
    41     9    35    1
    42    11    36    1
    43    14    37    1
    44    15    38    1
    45    16    39    1
    46    23    40    1
    47    24    41    1
    48    25    42    1
    49    26    43    1
