@<TRIPOS>MOLECULE
*****
 41 47 0 0 0
SMALL
GASTEIGER

@<TRIPOS>ATOM
      1 SI          1.4804   -1.4070    1.3604 Si      1  UNL1        0.0000
      2 C           2.7042   -0.7555    0.1090 C.2     1  UNL1        0.0000
      3 C           2.1025   -0.0620   -0.8762 C.2     1  UNL1        0.0000
      4 C           0.6404   -0.0121   -0.7483 C.ar    1  UNL1        0.0000
      5 N          -0.0818    0.6145   -1.6785 N.ar    1  UNL1        0.0000
      6 C          -1.4265    0.6150   -1.4782 C.ar    1  UNL1        0.0000
      7 C          -2.1276    0.0391   -0.3938 C.ar    1  UNL1        0.0000
      8 C          -1.3116   -0.6367    0.5390 C.ar    1  UNL1        0.0000
      9 C          -1.9528   -1.2748    1.5995 C.ar    1  UNL1        0.0000
     10 N          -3.2863   -1.3086    1.8004 N.ar    1  UNL1        0.0000
     11 C          -4.0870   -0.6687    0.9505 C.ar    1  UNL1        0.0000
     12 C          -5.4630   -0.7786    1.2623 C.ar    1  UNL1        0.0000
     13 C          -6.5261   -0.1949    0.5511 C.ar    1  UNL1        0.0000
     14 C          -6.0555    0.5502   -0.5164 C.ar    1  UNL1        0.0000
     15 C          -6.9241    1.2359   -1.3291 C.ar    1  UNL1        0.0000
     16 S          -6.0810    2.1072   -2.5341 S.2     1  UNL1        0.0000
     17 C          -4.5546    1.5605   -1.9519 C.ar    1  UNL1        0.0000
     18 C          -4.6614    0.6983   -0.8840 C.ar    1  UNL1        0.0000
     19 C          -3.5701    0.0619   -0.1751 C.ar    1  UNL1        0.0000
     20 C           0.0834   -0.6512    0.3628 C.ar    1  UNL1        0.0000
     21 C           4.1089   -0.8973    0.2296 C.ar    1  UNL1        0.0000
     22 S           4.8321   -2.4754    0.2601 S.2     1  UNL1        0.0000
     23 C           6.4241   -1.8551    0.3833 C.ar    1  UNL1        0.0000
     24 C           6.4258   -0.4861    0.3996 C.ar    1  UNL1        0.0000
     25 N           7.5670    0.2513    0.4931 N.ar    1  UNL1        0.0000
     26 C           7.2788    1.5821    0.4889 C.ar    1  UNL1        0.0000
     27 C           5.9924    2.1289    0.4050 C.ar    1  UNL1        0.0000
     28 N           4.8392    1.4118    0.3149 N.ar    1  UNL1        0.0000
     29 C           5.0967    0.0698    0.3101 C.ar    1  UNL1        0.0000
     30 H           1.5993   -0.7796    2.7010 H       1  UNL1        0.0000
     31 H           1.3834   -2.8886    1.3890 H       1  UNL1        0.0000
     32 H           2.5953    0.4417   -1.6963 H       1  UNL1        0.0000
     33 H          -1.9395    1.1060   -2.2923 H       1  UNL1        0.0000
     34 H          -1.3995   -1.8198    2.3602 H       1  UNL1        0.0000
     35 H          -5.7231   -1.3735    2.1412 H       1  UNL1        0.0000
     36 H          -7.5616   -0.3144    0.8403 H       1  UNL1        0.0000
     37 H          -8.0036    1.2869   -1.2799 H       1  UNL1        0.0000
     38 H          -3.6947    1.9540   -2.4631 H       1  UNL1        0.0000
     39 H           7.2756   -2.5178    0.4358 H       1  UNL1        0.0000
     40 H           8.1442    2.2355    0.5580 H       1  UNL1        0.0000
     41 H           5.8578    3.2071    0.4090 H       1  UNL1        0.0000
@<TRIPOS>BOND
     1     1     2    1
     2     2     3    2
     3     3     4    1
     4     4     5   ar
     5     5     6   ar
     6     6     7   ar
     7     7     8   ar
     8     8     9   ar
     9     9    10   ar
    10    10    11   ar
    11    11    12   ar
    12    12    13   ar
    13    13    14   ar
    14    14    15   ar
    15    15    16   ar
    16    16    17   ar
    17    17    18   ar
    18    18    19   ar
    19     8    20   ar
    20     2    21    1
    21    21    22   ar
    22    22    23   ar
    23    23    24   ar
    24    24    25   ar
    25    25    26   ar
    26    26    27   ar
    27    27    28   ar
    28    28    29   ar
    29    20     1    1
    30    29    21   ar
    31    20     4   ar
    32    29    24   ar
    33    19     7   ar
    34    19    11   ar
    35    18    14   ar
    36     1    30    1
    37     1    31    1
    38     3    32    1
    39     6    33    1
    40     9    34    1
    41    12    35    1
    42    13    36    1
    43    15    37    1
    44    17    38    1
    45    23    39    1
    46    26    40    1
    47    27    41    1
