@<TRIPOS>MOLECULE
*****
 36 41 0 0 0
SMALL
GASTEIGER

@<TRIPOS>ATOM
      1 SI         -1.0018    4.1566   -0.1370 Si      1  UNL1        0.0000
      2 C          -1.7731    2.4620   -0.0918 C.2     1  UNL1        0.0000
      3 C          -0.8564    1.4708   -0.0524 C.ar    1  UNL1        0.0000
      4 C           0.5437    1.9716   -0.0562 C.ar    1  UNL1        0.0000
      5 C           0.6545    3.3186   -0.0969 C.2     1  UNL1        0.0000
      6 C           1.6857    1.0143   -0.0182 C.ar    1  UNL1        0.0000
      7 C           3.0344    1.5268   -0.0217 C.ar    1  UNL1        0.0000
      8 C           4.1929    0.7372    0.0114 C.ar    1  UNL1        0.0000
      9 C           3.8887   -0.6150    0.0487 C.ar    1  UNL1        0.0000
     10 C           4.9033   -1.5403    0.0848 C.ar    1  UNL1        0.0000
     11 S           4.2854   -3.1290    0.1268 S.2     1  UNL1        0.0000
     12 C           2.6599   -2.5609    0.0961 C.ar    1  UNL1        0.0000
     13 C           2.5478   -1.1886    0.0542 C.ar    1  UNL1        0.0000
     14 C           1.3617   -0.3961    0.0205 C.ar    1  UNL1        0.0000
     15 C          -0.0610   -0.8339    0.0220 C.ar    1  UNL1        0.0000
     16 SI         -0.6899   -2.6314    0.0682 Si      1  UNL1        0.0000
     17 C          -2.3944   -2.0172    0.0405 C.2     1  UNL1        0.0000
     18 C          -3.6473   -2.7303    0.0561 C.2     1  UNL1        0.0000
     19 C          -4.7210   -1.9176    0.0294 C.2     1  UNL1        0.0000
     20 SI         -4.1901   -0.0981   -0.0200 Si      1  UNL1        0.0000
     21 C          -2.4278   -0.6655    0.0017 C.2     1  UNL1        0.0000
     22 C          -1.1327    0.0308   -0.0109 C.ar    1  UNL1        0.0000
     23 H          -1.2776    4.9397    1.0912 H       1  UNL1        0.0000
     24 H          -1.2557    4.8627   -1.4156 H       1  UNL1        0.0000
     25 H          -2.8434    2.4050   -0.1006 H       1  UNL1        0.0000
     26 H           1.5442    3.9238   -0.1086 H       1  UNL1        0.0000
     27 H           3.2003    2.6017   -0.0518 H       1  UNL1        0.0000
     28 H           5.1885    1.1609    0.0074 H       1  UNL1        0.0000
     29 H           5.9721   -1.3747    0.0891 H       1  UNL1        0.0000
     30 H           1.9201   -3.3376    0.1131 H       1  UNL1        0.0000
     31 H          -0.3075   -3.3863   -1.1532 H       1  UNL1        0.0000
     32 H          -0.3235   -3.3173    1.3344 H       1  UNL1        0.0000
     33 H          -3.7107   -3.8111    0.0866 H       1  UNL1        0.0000
     34 H          -5.7613   -2.2008    0.0338 H       1  UNL1        0.0000
     35 H          -4.5999    0.5497   -1.2916 H       1  UNL1        0.0000
     36 H          -4.6080    0.6198    1.2107 H       1  UNL1        0.0000
@<TRIPOS>BOND
     1     1     2    1
     2     2     3    2
     3     3     4   ar
     4     4     5    2
     5     4     6   ar
     6     6     7   ar
     7     7     8   ar
     8     8     9   ar
     9     9    10   ar
    10    10    11   ar
    11    11    12   ar
    12    12    13   ar
    13    13    14   ar
    14    14    15   ar
    15    15    16    1
    16    16    17    1
    17    17    18    1
    18    18    19    2
    19    19    20    1
    20    20    21    1
    21    21    22    1
    22     5     1    1
    23    14     6   ar
    24    22    15   ar
    25    22     3   ar
    26    13     9   ar
    27    21    17    2
    28     1    23    1
    29     1    24    1
    30     2    25    1
    31     5    26    1
    32     7    27    1
    33     8    28    1
    34    10    29    1
    35    12    30    1
    36    16    31    1
    37    16    32    1
    38    18    33    1
    39    19    34    1
    40    20    35    1
    41    20    36    1
