@<TRIPOS>MOLECULE
*****
 34 39 0 0 0
SMALL
GASTEIGER

@<TRIPOS>ATOM
      1 SI          0.2834    4.1096    0.7643 Si      1  UNL1        0.0000
      2 C           1.3479    2.6076    0.5744 C.2     1  UNL1        0.0000
      3 C           0.6280    1.4959    0.3184 C.ar    1  UNL1        0.0000
      4 C          -0.8420    1.7251    0.2471 C.ar    1  UNL1        0.0000
      5 C          -1.1982    3.0137    0.4527 C.2     1  UNL1        0.0000
      6 C          -1.7937    0.6027   -0.0285 C.ar    1  UNL1        0.0000
      7 C          -3.2102    0.8592   -0.0908 C.ar    1  UNL1        0.0000
      8 C          -4.1916   -0.1164   -0.3421 C.ar    1  UNL1        0.0000
      9 C          -3.6366   -1.3764   -0.5270 C.ar    1  UNL1        0.0000
     10 C          -4.4409   -2.4595   -0.7841 C.ar    1  UNL1        0.0000
     11 S          -3.5162   -3.8841   -0.9702 S.2     1  UNL1        0.0000
     12 C          -2.0407   -3.0375   -0.7044 C.ar    1  UNL1        0.0000
     13 C          -2.2176   -1.6909   -0.4750 C.ar    1  UNL1        0.0000
     14 C          -1.2213   -0.7108   -0.2218 C.ar    1  UNL1        0.0000
     15 C           0.2475   -0.8724   -0.1386 C.ar    1  UNL1        0.0000
     16 S           1.0921   -2.3383   -0.3390 S.2     1  UNL1        0.0000
     17 C           2.6239   -1.6291   -0.0936 C.ar    1  UNL1        0.0000
     18 C           3.8806   -2.2534   -0.1103 C.ar    1  UNL1        0.0000
     19 C           4.9938   -1.4557    0.1190 C.ar    1  UNL1        0.0000
     20 C           4.8050   -0.1073    0.3483 C.ar    1  UNL1        0.0000
     21 N           3.6144    0.5183    0.3702 N.ar    1  UNL1        0.0000
     22 C           2.5147   -0.2609    0.1453 C.ar    1  UNL1        0.0000
     23 C           1.1413    0.1664    0.1175 C.ar    1  UNL1        0.0000
     24 H           0.4746    5.1039   -0.3191 H       1  UNL1        0.0000
     25 H           0.2861    4.6592    2.1414 H       1  UNL1        0.0000
     26 H           2.4194    2.6811    0.6698 H       1  UNL1        0.0000
     27 H          -2.1803    3.4538    0.4570 H       1  UNL1        0.0000
     28 H          -3.5787    1.8717    0.0637 H       1  UNL1        0.0000
     29 H          -5.2478    0.1167   -0.3810 H       1  UNL1        0.0000
     30 H          -5.5180   -2.4988   -0.8737 H       1  UNL1        0.0000
     31 H          -1.1473   -3.6353   -0.7437 H       1  UNL1        0.0000
     32 H           3.9781   -3.3180   -0.2953 H       1  UNL1        0.0000
     33 H           5.9915   -1.8811    0.1184 H       1  UNL1        0.0000
     34 H           5.6589    0.5409    0.5307 H       1  UNL1        0.0000
@<TRIPOS>BOND
     1     1     2    1
     2     2     3    2
     3     3     4   ar
     4     4     5    2
     5     4     6   ar
     6     6     7   ar
     7     7     8   ar
     8     8     9   ar
     9     9    10   ar
    10    10    11   ar
    11    11    12   ar
    12    12    13   ar
    13    13    14   ar
    14    14    15   ar
    15    15    16   ar
    16    16    17   ar
    17    17    18   ar
    18    18    19   ar
    19    19    20   ar
    20    20    21   ar
    21    21    22   ar
    22    22    23   ar
    23     5     1    1
    24    14     6   ar
    25    23    15   ar
    26    23     3   ar
    27    13     9   ar
    28    22    17   ar
    29     1    24    1
    30     1    25    1
    31     2    26    1
    32     5    27    1
    33     7    28    1
    34     8    29    1
    35    10    30    1
    36    12    31    1
    37    18    32    1
    38    19    33    1
    39    20    34    1
