@<TRIPOS>MOLECULE
*****
 42 47 0 0 0
SMALL
GASTEIGER

@<TRIPOS>ATOM
      1 SI         -1.7293    3.1756    0.4240 Si      1  UNL1        0.0000
      2 C          -2.7224    1.6016    0.5394 C.2     1  UNL1        0.0000
      3 C          -1.9356    0.5109    0.4281 C.ar    1  UNL1        0.0000
      4 C          -2.3867   -0.8877    0.4670 C.ar    1  UNL1        0.0000
      5 C          -1.4322   -1.8426    0.3542 C.ar    1  UNL1        0.0000
      6 C          -0.0103   -1.5435    0.1978 C.ar    1  UNL1        0.0000
      7 C           0.4721   -0.2818    0.1470 C.ar    1  UNL1        0.0000
      8 C           1.9226   -0.1055   -0.0094 C.ar    1  UNL1        0.0000
      9 C           2.5399   -0.2300   -1.2530 C.ar    1  UNL1        0.0000
     10 C           3.9191   -0.0437   -1.3617 C.ar    1  UNL1        0.0000
     11 C           4.6540    0.2678   -0.2192 C.ar    1  UNL1        0.0000
     12 N           4.0711    0.3960    0.9974 N.ar    1  UNL1        0.0000
     13 C           2.7310    0.2104    1.0754 C.ar    1  UNL1        0.0000
     14 C           6.1071    0.4687   -0.2623 C.ar    1  UNL1        0.0000
     15 C           7.0273    0.1347   -1.2442 C.ar    1  UNL1        0.0000
     16 N           8.3465    0.4686   -0.9982 N.ar    1  UNL1        0.0000
     17 C           8.4249    1.0503    0.1766 C.ar    1  UNL1        0.0000
     18 S           6.9551    1.2338    1.0319 S.2     1  UNL1        0.0000
     19 C          -0.4890    0.8155    0.2621 C.ar    1  UNL1        0.0000
     20 C          -0.1923    2.1309    0.2330 C.2     1  UNL1        0.0000
     21 C          -3.7343   -1.3184    0.6007 C.ar    1  UNL1        0.0000
     22 S          -4.3712   -2.2073    1.9523 S.2     1  UNL1        0.0000
     23 C          -5.9851   -2.2605    1.2985 C.ar    1  UNL1        0.0000
     24 C          -5.9677   -1.6145    0.1137 C.ar    1  UNL1        0.0000
     25 C          -6.8284   -1.2624   -0.9371 C.ar    1  UNL1        0.0000
     26 C          -6.0205   -0.5684   -1.8473 C.ar    1  UNL1        0.0000
     27 O          -4.6991   -0.4479   -1.4577 O.2     1  UNL1        0.0000
     28 C          -4.7489   -1.1036   -0.2636 C.ar    1  UNL1        0.0000
     29 H          -2.0351    3.9581   -0.7978 H       1  UNL1        0.0000
     30 H          -1.7333    3.9434    1.6924 H       1  UNL1        0.0000
     31 H          -3.7928    1.6280    0.6673 H       1  UNL1        0.0000
     32 H          -1.6890   -2.8995    0.3643 H       1  UNL1        0.0000
     33 H           0.6506   -2.4041    0.1241 H       1  UNL1        0.0000
     34 H           1.9537   -0.4634   -2.1386 H       1  UNL1        0.0000
     35 H           4.3909   -0.1336   -2.3339 H       1  UNL1        0.0000
     36 H           2.3129    0.3283    2.0720 H       1  UNL1        0.0000
     37 H           6.7937   -0.3658   -2.1759 H       1  UNL1        0.0000
     38 H           9.3638    1.3980    0.5872 H       1  UNL1        0.0000
     39 H           0.7786    2.5866    0.1196 H       1  UNL1        0.0000
     40 H          -6.7913   -2.7488    1.8268 H       1  UNL1        0.0000
     41 H          -7.8832   -1.4666   -1.0504 H       1  UNL1        0.0000
     42 H          -6.2370   -0.1078   -2.8025 H       1  UNL1        0.0000
@<TRIPOS>BOND
     1     1     2    1
     2     2     3    2
     3     3     4   ar
     4     4     5   ar
     5     5     6   ar
     6     6     7   ar
     7     7     8    1
     8     8     9   ar
     9     9    10   ar
    10    10    11   ar
    11    11    12   ar
    12    12    13   ar
    13    11    14    1
    14    14    15   ar
    15    15    16   ar
    16    16    17   ar
    17    17    18   ar
    18     7    19   ar
    19    19    20    2
    20     4    21    1
    21    21    22   ar
    22    22    23   ar
    23    23    24   ar
    24    24    25   ar
    25    25    26   ar
    26    26    27   ar
    27    27    28   ar
    28    20     1    1
    29    28    21   ar
    30    19     3   ar
    31    28    24   ar
    32    13     8   ar
    33    18    14   ar
    34     1    29    1
    35     1    30    1
    36     2    31    1
    37     5    32    1
    38     6    33    1
    39     9    34    1
    40    10    35    1
    41    13    36    1
    42    15    37    1
    43    17    38    1
    44    20    39    1
    45    23    40    1
    46    25    41    1
    47    26    42    1
