@<TRIPOS>MOLECULE
*****
 36 40 0 0 0
SMALL
GASTEIGER

@<TRIPOS>ATOM
      1 SI         -2.1918   -2.3341    2.2094 Si      1  UNL1        0.0000
      2 C          -0.6528   -1.6848    1.3775 C.2     1  UNL1        0.0000
      3 C          -0.9540   -0.7888    0.4146 C.ar    1  UNL1        0.0000
      4 C           0.0130   -0.0896   -0.4388 C.ar    1  UNL1        0.0000
      5 C          -0.4848    0.7754   -1.3530 C.ar    1  UNL1        0.0000
      6 C          -1.9133    1.0457   -1.5035 C.ar    1  UNL1        0.0000
      7 C          -2.8667    0.4371   -0.7591 C.ar    1  UNL1        0.0000
      8 C          -4.2283    0.8105   -0.9816 C.ar    1  UNL1        0.0000
      9 C          -5.1243    1.4348   -0.1278 C.ar    1  UNL1        0.0000
     10 N          -6.3984    1.6486   -0.6190 N.ar    1  UNL1        0.0000
     11 C          -6.4675    1.1793   -1.8438 C.ar    1  UNL1        0.0000
     12 S          -5.0401    0.4667   -2.4670 S.2     1  UNL1        0.0000
     13 C          -2.4089   -0.5248    0.2518 C.ar    1  UNL1        0.0000
     14 C          -3.1994   -1.2356    1.0832 C.2     1  UNL1        0.0000
     15 C           1.4306   -0.2811   -0.4081 C.ar    1  UNL1        0.0000
     16 C           2.1636   -1.3694   -0.8398 C.ar    1  UNL1        0.0000
     17 C           3.5651   -1.2085   -0.6314 C.ar    1  UNL1        0.0000
     18 C           3.8865   -0.0022   -0.0348 C.ar    1  UNL1        0.0000
     19 S           2.4638    0.9154    0.2625 S.2     1  UNL1        0.0000
     20 C           5.1958    0.4958    0.3245 C.ar    1  UNL1        0.0000
     21 C           5.5385    1.6900    0.9411 C.ar    1  UNL1        0.0000
     22 N           6.8872    1.9063    1.1646 N.ar    1  UNL1        0.0000
     23 C           7.5643    0.8749    0.7169 C.ar    1  UNL1        0.0000
     24 S           6.6455   -0.3874    0.0172 S.2     1  UNL1        0.0000
     25 H          -2.2853   -1.9225    3.6303 H       1  UNL1        0.0000
     26 H          -2.4136   -3.7749    1.9396 H       1  UNL1        0.0000
     27 H           0.3270   -2.0234    1.6752 H       1  UNL1        0.0000
     28 H           0.1718    1.3167   -2.0308 H       1  UNL1        0.0000
     29 H          -2.1716    1.7872   -2.2565 H       1  UNL1        0.0000
     30 H          -4.8901    1.7590    0.8796 H       1  UNL1        0.0000
     31 H          -7.3739    1.2348   -2.4322 H       1  UNL1        0.0000
     32 H          -4.2762   -1.2222    1.1427 H       1  UNL1        0.0000
     33 H           1.7111   -2.2457   -1.2894 H       1  UNL1        0.0000
     34 H           4.2947   -1.9587   -0.9116 H       1  UNL1        0.0000
     35 H           4.8395    2.4556    1.2569 H       1  UNL1        0.0000
     36 H           8.6431    0.8204    0.7839 H       1  UNL1        0.0000
@<TRIPOS>BOND
     1     1     2    1
     2     2     3    2
     3     3     4   ar
     4     4     5   ar
     5     5     6   ar
     6     6     7   ar
     7     7     8    1
     8     8     9   ar
     9     9    10   ar
    10    10    11   ar
    11    11    12   ar
    12     7    13   ar
    13    13    14    2
    14     4    15    1
    15    15    16   ar
    16    16    17   ar
    17    17    18   ar
    18    18    19   ar
    19    18    20    1
    20    20    21   ar
    21    21    22   ar
    22    22    23   ar
    23    23    24   ar
    24    14     1    1
    25    19    15   ar
    26    24    20   ar
    27    13     3   ar
    28    12     8   ar
    29     1    25    1
    30     1    26    1
    31     2    27    1
    32     5    28    1
    33     6    29    1
    34     9    30    1
    35    11    31    1
    36    14    32    1
    37    16    33    1
    38    17    34    1
    39    21    35    1
    40    23    36    1
