@<TRIPOS>MOLECULE
*****
 44 50 0 0 0
SMALL
GASTEIGER

@<TRIPOS>ATOM
      1 SI         -1.4765    1.9335   -2.9236 Si      1  UNL1        0.0000
      2 C          -2.7233    1.3364   -1.6746 C.2     1  UNL1        0.0000
      3 C          -2.1214    0.7550   -0.6156 C.ar    1  UNL1        0.0000
      4 C          -2.8029    0.1643    0.5440 C.ar    1  UNL1        0.0000
      5 C          -2.0154   -0.3600    1.5127 C.ar    1  UNL1        0.0000
      6 C          -0.5554   -0.3575    1.4509 C.ar    1  UNL1        0.0000
      7 C           0.1451    0.1624    0.4153 C.ar    1  UNL1        0.0000
      8 C           1.5631    0.1081    0.4882 C.ar    1  UNL1        0.0000
      9 S           2.5083   -1.3435    0.4791 S.2     1  UNL1        0.0000
     10 C           4.0356   -0.4990    0.5737 C.ar    1  UNL1        0.0000
     11 C           5.3109   -1.1690    0.5887 C.ar    1  UNL1        0.0000
     12 C           6.5011   -0.6981    0.0619 C.ar    1  UNL1        0.0000
     13 C           7.5887   -1.6001    0.2549 C.ar    1  UNL1        0.0000
     14 C           7.1998   -2.7347    0.9279 C.ar    1  UNL1        0.0000
     15 S           5.5375   -2.7075    1.3195 S.2     1  UNL1        0.0000
     16 C           3.7523    0.8269    0.6012 C.ar    1  UNL1        0.0000
     17 C           4.3945    2.0782    0.6832 C.ar    1  UNL1        0.0000
     18 C           3.3614    3.0225    0.6707 C.ar    1  UNL1        0.0000
     19 O           2.0960    2.4754    0.5902 O.2     1  UNL1        0.0000
     20 C           2.4161    1.1504    0.5556 C.ar    1  UNL1        0.0000
     21 C          -0.6340    0.7474   -0.6840 C.ar    1  UNL1        0.0000
     22 C          -0.1265    1.3003   -1.8058 C.2     1  UNL1        0.0000
     23 C          -4.2099    0.0858    0.7268 C.ar    1  UNL1        0.0000
     24 S          -5.1021    0.8920    1.9828 S.2     1  UNL1        0.0000
     25 C          -6.6386    0.2778    1.4383 C.ar    1  UNL1        0.0000
     26 C          -6.4102   -0.4905    0.3526 C.ar    1  UNL1        0.0000
     27 C          -7.1051   -1.2748   -0.5808 C.ar    1  UNL1        0.0000
     28 C          -6.1166   -1.7734   -1.4392 C.ar    1  UNL1        0.0000
     29 O          -4.8330   -1.3657   -1.1256 O.2     1  UNL1        0.0000
     30 C          -5.0952   -0.5937   -0.0332 C.ar    1  UNL1        0.0000
     31 H          -1.4635    3.4110   -3.0527 H       1  UNL1        0.0000
     32 H          -1.5485    1.1897   -4.2046 H       1  UNL1        0.0000
     33 H          -3.7813    1.4573   -1.8427 H       1  UNL1        0.0000
     34 H          -2.4441   -0.8253    2.3974 H       1  UNL1        0.0000
     35 H          -0.0516   -0.7999    2.3072 H       1  UNL1        0.0000
     36 H           6.5936    0.2492   -0.4548 H       1  UNL1        0.0000
     37 H           8.6021   -1.4253   -0.0852 H       1  UNL1        0.0000
     38 H           7.8105   -3.5819    1.2088 H       1  UNL1        0.0000
     39 H           5.4501    2.2967    0.7526 H       1  UNL1        0.0000
     40 H           3.3673    4.1038    0.7173 H       1  UNL1        0.0000
     41 H           0.9124    1.4054   -2.0738 H       1  UNL1        0.0000
     42 H          -7.5578    0.5273    1.9484 H       1  UNL1        0.0000
     43 H          -8.1650   -1.4720   -0.6492 H       1  UNL1        0.0000
     44 H          -6.1685   -2.4213   -2.3046 H       1  UNL1        0.0000
@<TRIPOS>BOND
     1     1     2    1
     2     2     3    2
     3     3     4   ar
     4     4     5   ar
     5     5     6   ar
     6     6     7   ar
     7     7     8    1
     8     8     9   ar
     9     9    10   ar
    10    10    11    1
    11    11    12   ar
    12    12    13   ar
    13    13    14   ar
    14    14    15   ar
    15    10    16   ar
    16    16    17   ar
    17    17    18   ar
    18    18    19   ar
    19    19    20   ar
    20     7    21   ar
    21    21    22    2
    22     4    23    1
    23    23    24   ar
    24    24    25   ar
    25    25    26   ar
    26    26    27   ar
    27    27    28   ar
    28    28    29   ar
    29    29    30   ar
    30    22     1    1
    31    30    23   ar
    32    21     3   ar
    33    30    26   ar
    34    20     8   ar
    35    15    11   ar
    36    20    16   ar
    37     1    31    1
    38     1    32    1
    39     2    33    1
    40     5    34    1
    41     6    35    1
    42    12    36    1
    43    13    37    1
    44    14    38    1
    45    17    39    1
    46    18    40    1
    47    22    41    1
    48    25    42    1
    49    27    43    1
    50    28    44    1
