@<TRIPOS>MOLECULE
*****
 42 47 0 0 0
SMALL
GASTEIGER

@<TRIPOS>ATOM
      1 SI         -1.5963   -3.6022    0.3404 Si      1  UNL1        0.0000
      2 C          -2.8907   -2.3547   -0.1652 C.2     1  UNL1        0.0000
      3 C          -2.3663   -1.1158   -0.2760 C.ar    1  UNL1        0.0000
      4 C          -3.0972    0.1026   -0.6551 C.ar    1  UNL1        0.0000
      5 C          -2.3737    1.2416   -0.7596 C.ar    1  UNL1        0.0000
      6 C          -0.9378    1.3093   -0.4990 C.ar    1  UNL1        0.0000
      7 C          -0.2005    0.2358   -0.1320 C.ar    1  UNL1        0.0000
      8 C           1.1912    0.4493    0.0930 C.ar    1  UNL1        0.0000
      9 S           2.3960   -0.1321   -1.0325 S.2     1  UNL1        0.0000
     10 C           3.7375    0.4877   -0.1167 C.ar    1  UNL1        0.0000
     11 C           5.1254    0.3400   -0.5185 C.ar    1  UNL1        0.0000
     12 N           5.3730   -0.4106   -1.5960 N.ar    1  UNL1        0.0000
     13 C           6.6599   -0.5062   -1.9156 C.ar    1  UNL1        0.0000
     14 N           7.6722    0.0649   -1.2687 N.ar    1  UNL1        0.0000
     15 C           7.2991    0.7860   -0.2148 C.ar    1  UNL1        0.0000
     16 N           6.0525    0.9630    0.2097 N.ar    1  UNL1        0.0000
     17 C           3.2325    1.0975    0.9758 C.ar    1  UNL1        0.0000
     18 O           3.9154    1.7230    1.9774 O.2     1  UNL1        0.0000
     19 C           2.8615    2.1242    2.7756 C.ar    1  UNL1        0.0000
     20 C           1.6018    1.7611    2.2873 C.ar    1  UNL1        0.0000
     21 C           1.8621    1.0779    1.0875 C.ar    1  UNL1        0.0000
     22 C          -0.9047   -1.0445   -0.0002 C.ar    1  UNL1        0.0000
     23 C          -0.3445   -2.2210    0.3507 C.2     1  UNL1        0.0000
     24 C          -4.4963    0.2054   -0.9030 C.ar    1  UNL1        0.0000
     25 C          -5.2553    0.7084   -1.9432 C.ar    1  UNL1        0.0000
     26 C          -6.6201    0.5462   -1.6008 C.ar    1  UNL1        0.0000
     27 C          -6.6627   -0.0412   -0.3570 C.ar    1  UNL1        0.0000
     28 N          -5.3719   -0.2390    0.0605 N.ar    1  UNL1        0.0000
     29 H          -1.8514   -4.1451    1.6965 H       1  UNL1        0.0000
     30 H          -1.3333   -4.6087   -0.7153 H       1  UNL1        0.0000
     31 H          -3.9087   -2.6583   -0.3492 H       1  UNL1        0.0000
     32 H          -2.8467    2.1832   -1.0294 H       1  UNL1        0.0000
     33 H          -0.4833    2.2898   -0.6225 H       1  UNL1        0.0000
     34 H           6.9070   -1.1061   -2.7849 H       1  UNL1        0.0000
     35 H           8.0845    1.2754    0.3510 H       1  UNL1        0.0000
     36 H           3.1670    2.6606    3.6646 H       1  UNL1        0.0000
     37 H           0.6506    1.9710    2.7548 H       1  UNL1        0.0000
     38 H           0.6892   -2.4102    0.5929 H       1  UNL1        0.0000
     39 H          -4.8654    1.1392   -2.8565 H       1  UNL1        0.0000
     40 H          -7.4773    0.8299   -2.1974 H       1  UNL1        0.0000
     41 H          -7.4966   -0.3325    0.2673 H       1  UNL1        0.0000
     42 H          -5.0978   -0.6451    0.9456 H       1  UNL1        0.0000
@<TRIPOS>BOND
     1     1     2    1
     2     2     3    2
     3     3     4   ar
     4     4     5   ar
     5     5     6   ar
     6     6     7   ar
     7     7     8    1
     8     8     9   ar
     9     9    10   ar
    10    10    11    1
    11    11    12   ar
    12    12    13   ar
    13    13    14   ar
    14    14    15   ar
    15    15    16   ar
    16    10    17   ar
    17    17    18   ar
    18    18    19   ar
    19    19    20   ar
    20    20    21   ar
    21     7    22   ar
    22    22    23    2
    23     4    24    1
    24    24    25   ar
    25    25    26   ar
    26    26    27   ar
    27    27    28   ar
    28    23     1    1
    29    28    24   ar
    30    22     3   ar
    31    21     8   ar
    32    16    11   ar
    33    21    17   ar
    34     1    29    1
    35     1    30    1
    36     2    31    1
    37     5    32    1
    38     6    33    1
    39    13    34    1
    40    15    35    1
    41    19    36    1
    42    20    37    1
    43    23    38    1
    44    25    39    1
    45    26    40    1
    46    27    41    1
    47    28    42    1
