@<TRIPOS>MOLECULE
*****
 44 50 0 0 0
SMALL
GASTEIGER

@<TRIPOS>ATOM
      1 SI         -1.7192   -2.4962   -2.4564 Si      1  UNL1        0.0000
      2 C          -2.7693   -1.8374   -1.0614 C.2     1  UNL1        0.0000
      3 C          -2.0478   -1.0582   -0.2292 C.ar    1  UNL1        0.0000
      4 C          -2.5525   -0.3927    0.9755 C.ar    1  UNL1        0.0000
      5 C          -1.6755    0.3565    1.6826 C.ar    1  UNL1        0.0000
      6 C          -0.2745    0.5196    1.2986 C.ar    1  UNL1        0.0000
      7 C           0.2683   -0.0698    0.2071 C.ar    1  UNL1        0.0000
      8 C           1.6430    0.1941   -0.0765 C.ar    1  UNL1        0.0000
      9 S           2.9128   -0.4450    0.9112 S.2     1  UNL1        0.0000
     10 C           4.1692    0.2478   -0.0495 C.ar    1  UNL1        0.0000
     11 C           5.5772    0.0593    0.2618 C.ar    1  UNL1        0.0000
     12 N           5.9037   -0.0756    1.5500 N.ar    1  UNL1        0.0000
     13 C           7.2025   -0.2566    1.7669 C.ar    1  UNL1        0.0000
     14 N           8.1521   -0.3104    0.8359 N.ar    1  UNL1        0.0000
     15 C           7.6993   -0.1665   -0.4072 C.ar    1  UNL1        0.0000
     16 N           6.4316    0.0171   -0.7617 N.ar    1  UNL1        0.0000
     17 C           3.6321    0.9538   -1.0936 C.ar    1  UNL1        0.0000
     18 S           4.3754    1.9240   -2.4337 S.2     1  UNL1        0.0000
     19 C           2.7237    2.2183   -2.9494 C.ar    1  UNL1        0.0000
     20 C           1.7194    1.6397   -2.1683 C.ar    1  UNL1        0.0000
     21 C           2.2366    0.8964   -1.0753 C.ar    1  UNL1        0.0000
     22 C          -0.6209   -0.8991   -0.6157 C.ar    1  UNL1        0.0000
     23 C          -0.2682   -1.5715   -1.7311 C.2     1  UNL1        0.0000
     24 C          -3.8917   -0.4589    1.4556 C.ar    1  UNL1        0.0000
     25 S          -4.4381   -1.7992    2.4451 S.2     1  UNL1        0.0000
     26 C          -6.0534   -1.1844    2.5948 C.ar    1  UNL1        0.0000
     27 C          -6.1126   -0.0285    1.9109 C.ar    1  UNL1        0.0000
     28 O          -7.2012    0.7754    1.7708 O.2     1  UNL1        0.0000
     29 C          -6.6527    1.7718    0.9825 C.ar    1  UNL1        0.0000
     30 C          -5.3018    1.5759    0.6659 C.ar    1  UNL1        0.0000
     31 C          -4.9527    0.3680    1.2948 C.ar    1  UNL1        0.0000
     32 H          -1.5454   -3.9669   -2.3941 H       1  UNL1        0.0000
     33 H          -2.1278   -1.9518   -3.7737 H       1  UNL1        0.0000
     34 H          -3.8139   -2.0935   -0.9799 H       1  UNL1        0.0000
     35 H          -1.9821    0.8780    2.5867 H       1  UNL1        0.0000
     36 H           0.3190    1.1607    1.9468 H       1  UNL1        0.0000
     37 H           7.5176   -0.3711    2.7985 H       1  UNL1        0.0000
     38 H           8.4327   -0.2030   -1.2060 H       1  UNL1        0.0000
     39 H           2.5853    2.8281   -3.8320 H       1  UNL1        0.0000
     40 H           0.6661    1.7613   -2.3917 H       1  UNL1        0.0000
     41 H           0.7054   -1.6143   -2.1932 H       1  UNL1        0.0000
     42 H          -6.8355   -1.6816    3.1493 H       1  UNL1        0.0000
     43 H          -7.3502    2.5583    0.7245 H       1  UNL1        0.0000
     44 H          -4.6857    2.2282    0.0639 H       1  UNL1        0.0000
@<TRIPOS>BOND
     1     1     2    1
     2     2     3    2
     3     3     4   ar
     4     4     5   ar
     5     5     6   ar
     6     6     7   ar
     7     7     8    1
     8     8     9   ar
     9     9    10   ar
    10    10    11    1
    11    11    12   ar
    12    12    13   ar
    13    13    14   ar
    14    14    15   ar
    15    15    16   ar
    16    10    17   ar
    17    17    18   ar
    18    18    19   ar
    19    19    20   ar
    20    20    21   ar
    21     7    22   ar
    22    22    23    2
    23     4    24    1
    24    24    25   ar
    25    25    26   ar
    26    26    27   ar
    27    27    28   ar
    28    28    29   ar
    29    29    30   ar
    30    30    31   ar
    31    23     1    1
    32    31    24   ar
    33    22     3   ar
    34    31    27   ar
    35    21     8   ar
    36    16    11   ar
    37    21    17   ar
    38     1    32    1
    39     1    33    1
    40     2    34    1
    41     5    35    1
    42     6    36    1
    43    13    37    1
    44    15    38    1
    45    19    39    1
    46    20    40    1
    47    23    41    1
    48    26    42    1
    49    29    43    1
    50    30    44    1
