@<TRIPOS>MOLECULE
*****
 45 51 0 0 0
SMALL
GASTEIGER

@<TRIPOS>ATOM
      1 SI          3.2803    0.3590    3.6396 Si      1  UNL1        0.0000
      2 C           4.3122    0.6505    2.1102 C.2     1  UNL1        0.0000
      3 C           3.5849    0.4772    0.9870 C.ar    1  UNL1        0.0000
      4 C           4.0747    0.6305   -0.3871 C.ar    1  UNL1        0.0000
      5 C           3.1820    0.4405   -1.3866 C.ar    1  UNL1        0.0000
      6 C           1.7857    0.0776   -1.1520 C.ar    1  UNL1        0.0000
      7 C           1.2628   -0.0917    0.0851 C.ar    1  UNL1        0.0000
      8 C          -0.1066   -0.4620    0.1752 C.ar    1  UNL1        0.0000
      9 S          -1.4135    0.6426   -0.0265 S.2     1  UNL1        0.0000
     10 C          -2.6141   -0.5639    0.2566 C.ar    1  UNL1        0.0000
     11 C          -4.0157   -0.2589    0.2398 C.ar    1  UNL1        0.0000
     12 S          -4.9967   -0.5463    1.6422 S.2     1  UNL1        0.0000
     13 C          -6.4289    0.0507    0.8890 C.ar    1  UNL1        0.0000
     14 C          -6.1403    0.4412   -0.3816 C.ar    1  UNL1        0.0000
     15 SI         -7.1044    1.1724   -1.8242 Si      1  UNL1        0.0000
     16 C          -5.4845    1.1524   -2.8373 C.2     1  UNL1        0.0000
     17 C          -4.4534    0.6635   -2.1134 C.2     1  UNL1        0.0000
     18 C          -4.7822    0.2737   -0.7714 C.ar    1  UNL1        0.0000
     19 C          -1.9740   -1.7365    0.4928 C.ar    1  UNL1        0.0000
     20 C          -2.4077   -3.0609    0.7719 C.ar    1  UNL1        0.0000
     21 C          -1.3442   -3.9548    0.9361 C.ar    1  UNL1        0.0000
     22 S           0.2703   -3.2852    0.7626 S.2     1  UNL1        0.0000
     23 C          -0.5779   -1.7173    0.4542 C.ar    1  UNL1        0.0000
     24 C           2.1633    0.1124    1.2256 C.ar    1  UNL1        0.0000
     25 C           1.8239    0.0097    2.5274 C.2     1  UNL1        0.0000
     26 C           5.4077    0.9748   -0.7598 C.ar    1  UNL1        0.0000
     27 C           5.9289    2.1845   -1.1886 C.ar    1  UNL1        0.0000
     28 N           7.2791    2.2007   -1.4848 N.ar    1  UNL1        0.0000
     29 C           7.7762    1.0027   -1.2750 C.ar    1  UNL1        0.0000
     30 S           6.6782   -0.1915   -0.7240 S.2     1  UNL1        0.0000
     31 H           3.0998    1.5937    4.4403 H       1  UNL1        0.0000
     32 H           3.7191   -0.8373    4.3972 H       1  UNL1        0.0000
     33 H           5.3531    0.9221    2.1851 H       1  UNL1        0.0000
     34 H           3.4749    0.5375   -2.4298 H       1  UNL1        0.0000
     35 H           1.1787   -0.0640   -2.0434 H       1  UNL1        0.0000
     36 H          -7.3679    0.0707    1.4254 H       1  UNL1        0.0000
     37 H          -7.5747    2.5610   -1.5955 H       1  UNL1        0.0000
     38 H          -8.1085    0.2481   -2.4071 H       1  UNL1        0.0000
     39 H          -5.4645    1.5004   -3.8575 H       1  UNL1        0.0000
     40 H          -3.4505    0.5665   -2.5130 H       1  UNL1        0.0000
     41 H          -3.4426   -3.3711    0.8532 H       1  UNL1        0.0000
     42 H          -1.4169   -5.0113    1.1557 H       1  UNL1        0.0000
     43 H           0.8567   -0.2367    2.9364 H       1  UNL1        0.0000
     44 H           5.3560    3.0974   -1.3020 H       1  UNL1        0.0000
     45 H           8.8213    0.7751   -1.4395 H       1  UNL1        0.0000
@<TRIPOS>BOND
     1     1     2    1
     2     2     3    2
     3     3     4   ar
     4     4     5   ar
     5     5     6   ar
     6     6     7   ar
     7     7     8    1
     8     8     9   ar
     9     9    10   ar
    10    10    11    1
    11    11    12   ar
    12    12    13   ar
    13    13    14   ar
    14    14    15    1
    15    15    16    1
    16    16    17    2
    17    17    18    1
    18    10    19   ar
    19    19    20   ar
    20    20    21   ar
    21    21    22   ar
    22    22    23   ar
    23     7    24   ar
    24    24    25    2
    25     4    26    1
    26    26    27   ar
    27    27    28   ar
    28    28    29   ar
    29    29    30   ar
    30    25     1    1
    31    30    26   ar
    32    24     3   ar
    33    23     8   ar
    34    18    11   ar
    35    23    19   ar
    36    18    14   ar
    37     1    31    1
    38     1    32    1
    39     2    33    1
    40     5    34    1
    41     6    35    1
    42    13    36    1
    43    15    37    1
    44    15    38    1
    45    16    39    1
    46    17    40    1
    47    20    41    1
    48    21    42    1
    49    25    43    1
    50    27    44    1
    51    29    45    1
