@<TRIPOS>MOLECULE
*****
 46 52 0 0 0
SMALL
GASTEIGER

@<TRIPOS>ATOM
      1 SI          0.8166   -2.9834   -2.3190 Si      1  UNL1        0.0000
      2 C           1.1089   -1.4983   -1.2304 C.2     1  UNL1        0.0000
      3 C          -0.0499   -0.8827   -0.9164 C.ar    1  UNL1        0.0000
      4 C          -0.1854    0.3192   -0.0865 C.ar    1  UNL1        0.0000
      5 C          -1.4374    0.7923    0.1144 C.ar    1  UNL1        0.0000
      6 C          -2.6310    0.1536   -0.4366 C.ar    1  UNL1        0.0000
      7 C          -2.5869   -0.9530   -1.2153 C.ar    1  UNL1        0.0000
      8 C          -3.8275   -1.4973   -1.6666 C.ar    1  UNL1        0.0000
      9 S          -4.7895   -0.6954   -2.8695 S.2     1  UNL1        0.0000
     10 C          -6.0045   -1.9178   -2.8703 C.ar    1  UNL1        0.0000
     11 C          -5.6834   -2.9075   -1.9878 C.ar    1  UNL1        0.0000
     12 S          -6.5406   -4.4296   -1.5520 S.2     1  UNL1        0.0000
     13 C          -5.1913   -4.6948   -0.4539 C.ar    1  UNL1        0.0000
     14 C          -4.2000   -3.7066   -0.4404 C.ar    1  UNL1        0.0000
     15 C          -4.4769   -2.6455   -1.3426 C.ar    1  UNL1        0.0000
     16 C          -1.2627   -1.5235   -1.4902 C.ar    1  UNL1        0.0000
     17 C          -1.0117   -2.6128   -2.2463 C.2     1  UNL1        0.0000
     18 C           0.9005    1.0505    0.4896 C.ar    1  UNL1        0.0000
     19 S           1.2318    0.9319    2.1905 S.2     1  UNL1        0.0000
     20 C           2.6008    1.9994    2.1320 C.ar    1  UNL1        0.0000
     21 C           2.7638    2.4010    0.8332 C.ar    1  UNL1        0.0000
     22 SI          3.9678    3.5192   -0.0961 Si      1  UNL1        0.0000
     23 C           3.0089    3.1241   -1.7040 C.2     1  UNL1        0.0000
     24 C           1.9773    2.2854   -1.4671 C.2     1  UNL1        0.0000
     25 C           1.8258    1.8801   -0.0992 C.ar    1  UNL1        0.0000
     26 C           3.3589    2.3215    3.3478 C.ar    1  UNL1        0.0000
     27 N           2.9610    1.7801    4.5009 N.ar    1  UNL1        0.0000
     28 C           3.6997    2.1223    5.5508 C.ar    1  UNL1        0.0000
     29 N           4.7579    2.9289    5.5337 N.ar    1  UNL1        0.0000
     30 C           5.0544    3.4051    4.3275 C.ar    1  UNL1        0.0000
     31 N           4.4015    3.1443    3.1983 N.ar    1  UNL1        0.0000
     32 H           1.1592   -4.2595   -1.6460 H       1  UNL1        0.0000
     33 H           1.3751   -2.8072   -3.6812 H       1  UNL1        0.0000
     34 H           2.1037   -1.2140   -0.9250 H       1  UNL1        0.0000
     35 H          -1.6102    1.6889    0.7057 H       1  UNL1        0.0000
     36 H          -3.5775    0.6210   -0.1745 H       1  UNL1        0.0000
     37 H          -6.8799   -1.8640   -3.5024 H       1  UNL1        0.0000
     38 H          -5.2114   -5.5983    0.1404 H       1  UNL1        0.0000
     39 H          -3.3260   -3.7651    0.1975 H       1  UNL1        0.0000
     40 H          -1.7266   -3.2310   -2.7659 H       1  UNL1        0.0000
     41 H           5.3531    2.9923   -0.1856 H       1  UNL1        0.0000
     42 H           3.8467    4.9625    0.2308 H       1  UNL1        0.0000
     43 H           3.3073    3.5525   -2.6471 H       1  UNL1        0.0000
     44 H           1.3064    1.9371   -2.2448 H       1  UNL1        0.0000
     45 H           3.4133    1.7051    6.5103 H       1  UNL1        0.0000
     46 H           5.9098    4.0689    4.2592 H       1  UNL1        0.0000
@<TRIPOS>BOND
     1     1     2    1
     2     2     3    2
     3     3     4   ar
     4     4     5   ar
     5     5     6   ar
     6     6     7   ar
     7     7     8    1
     8     8     9   ar
     9     9    10   ar
    10    10    11   ar
    11    11    12   ar
    12    12    13   ar
    13    13    14   ar
    14    14    15   ar
    15     7    16   ar
    16    16    17    2
    17     4    18    1
    18    18    19   ar
    19    19    20   ar
    20    20    21   ar
    21    21    22    1
    22    22    23    1
    23    23    24    2
    24    24    25    1
    25    20    26    1
    26    26    27   ar
    27    27    28   ar
    28    28    29   ar
    29    29    30   ar
    30    30    31   ar
    31    17     1    1
    32    25    18   ar
    33    31    26   ar
    34    16     3   ar
    35    25    21   ar
    36    15     8   ar
    37    15    11   ar
    38     1    32    1
    39     1    33    1
    40     2    34    1
    41     5    35    1
    42     6    36    1
    43    10    37    1
    44    13    38    1
    45    14    39    1
    46    17    40    1
    47    22    41    1
    48    22    42    1
    49    23    43    1
    50    24    44    1
    51    28    45    1
    52    30    46    1
