@<TRIPOS>MOLECULE
*****
 34 39 0 0 0
SMALL
GASTEIGER

@<TRIPOS>ATOM
      1 SI         -2.1885    3.0561    1.4124 Si      1  UNL1        0.0000
      2 C          -0.5970    2.2991    0.7985 C.2     1  UNL1        0.0000
      3 C          -0.7487    1.0056    0.4570 C.ar    1  UNL1        0.0000
      4 C           0.2311    0.1060   -0.0743 C.ar    1  UNL1        0.0000
      5 C          -0.2303   -1.0775   -0.6389 C.ar    1  UNL1        0.0000
      6 O           0.7685   -1.7930   -1.2227 O.2     1  UNL1        0.0000
      7 C           1.9242   -1.1052   -0.9758 C.ar    1  UNL1        0.0000
      8 C           3.2045   -1.5003   -1.4109 C.ar    1  UNL1        0.0000
      9 C           4.3289   -0.7371   -1.0502 C.ar    1  UNL1        0.0000
     10 C           4.0268    0.3449   -0.2223 C.ar    1  UNL1        0.0000
     11 C           5.0197    1.1535    0.2836 C.ar    1  UNL1        0.0000
     12 S           4.3885    2.3536    1.3493 S.2     1  UNL1        0.0000
     13 C           2.7704    1.7922    1.1436 C.ar    1  UNL1        0.0000
     14 C           2.7504    0.7691    0.2431 C.ar    1  UNL1        0.0000
     15 C           1.6205    0.0154   -0.2140 C.ar    1  UNL1        0.0000
     16 C          -1.5932   -1.5877   -0.6420 C.ar    1  UNL1        0.0000
     17 N          -1.8158   -2.8010   -1.2030 N.ar    1  UNL1        0.0000
     18 C          -3.0813   -3.2615   -1.1413 C.ar    1  UNL1        0.0000
     19 C          -4.1270   -2.5725   -0.5440 C.ar    1  UNL1        0.0000
     20 C          -3.8711   -1.3246    0.0261 C.ar    1  UNL1        0.0000
     21 C          -2.5785   -0.7996   -0.0154 C.ar    1  UNL1        0.0000
     22 C          -2.1768    0.5305    0.5263 C.ar    1  UNL1        0.0000
     23 C          -3.0423    1.4436    1.0169 C.2     1  UNL1        0.0000
     24 H          -2.6578    4.1669    0.5513 H       1  UNL1        0.0000
     25 H          -2.1568    3.3350    2.8674 H       1  UNL1        0.0000
     26 H           0.2822    2.9112    0.7178 H       1  UNL1        0.0000
     27 H           3.3139   -2.3951   -2.0163 H       1  UNL1        0.0000
     28 H           5.3289   -1.0117   -1.3635 H       1  UNL1        0.0000
     29 H           6.0866    1.1036    0.1135 H       1  UNL1        0.0000
     30 H           1.9828    2.2386    1.7256 H       1  UNL1        0.0000
     31 H          -3.2409   -4.2348   -1.5973 H       1  UNL1        0.0000
     32 H          -5.1244   -2.9988   -0.5242 H       1  UNL1        0.0000
     33 H          -4.6871   -0.7825    0.4926 H       1  UNL1        0.0000
     34 H          -4.1104    1.3582    1.1312 H       1  UNL1        0.0000
@<TRIPOS>BOND
     1     1     2    1
     2     2     3    2
     3     3     4   ar
     4     4     5   ar
     5     5     6   ar
     6     6     7   ar
     7     7     8   ar
     8     8     9   ar
     9     9    10   ar
    10    10    11   ar
    11    11    12   ar
    12    12    13   ar
    13    13    14   ar
    14    14    15   ar
    15     5    16   ar
    16    16    17   ar
    17    17    18   ar
    18    18    19   ar
    19    19    20   ar
    20    20    21   ar
    21    21    22   ar
    22    22    23    2
    23    23     1    1
    24    22     3   ar
    25     4    15   ar
    26    21    16   ar
    27    15     7   ar
    28    14    10   ar
    29     1    24    1
    30     1    25    1
    31     2    26    1
    32     8    27    1
    33     9    28    1
    34    11    29    1
    35    13    30    1
    36    18    31    1
    37    19    32    1
    38    20    33    1
    39    23    34    1
