@<TRIPOS>MOLECULE
*****
 42 48 0 0 0
SMALL
GASTEIGER

@<TRIPOS>ATOM
      1 SI          1.4309   -1.1026   -1.0143 Si      1  UNL1        0.0000
      2 C           2.6539    0.1993   -0.4569 C.2     1  UNL1        0.0000
      3 C           2.0370    1.2382    0.1361 C.2     1  UNL1        0.0000
      4 C           0.5771    1.0899    0.2119 C.ar    1  UNL1        0.0000
      5 N          -0.1343    2.0557    0.7990 N.ar    1  UNL1        0.0000
      6 C          -1.4800    1.8616    0.8403 C.ar    1  UNL1        0.0000
      7 C          -2.2084    0.7615    0.3423 C.ar    1  UNL1        0.0000
      8 C          -3.6898    0.6764    0.4569 C.ar    1  UNL1        0.0000
      9 C          -4.4913    1.6763    1.0641 C.ar    1  UNL1        0.0000
     10 C          -5.8894    1.5854    1.1671 C.ar    1  UNL1        0.0000
     11 C          -6.5655    0.4822    0.6648 C.ar    1  UNL1        0.0000
     12 C          -5.8468   -0.5362    0.0565 C.ar    1  UNL1        0.0000
     13 C          -4.4369   -0.4382   -0.0441 C.ar    1  UNL1        0.0000
     14 C          -3.6019   -1.4017   -0.6369 C.ar    1  UNL1        0.0000
     15 C          -3.9842   -2.5860   -1.2142 C.ar    1  UNL1        0.0000
     16 O          -2.8873   -3.2466   -1.6779 O.2     1  UNL1        0.0000
     17 C          -1.7978   -2.4740   -1.3929 C.ar    1  UNL1        0.0000
     18 C          -2.1826   -1.3229   -0.7487 C.ar    1  UNL1        0.0000
     19 C          -1.3797   -0.2491   -0.2746 C.ar    1  UNL1        0.0000
     20 C           0.0251   -0.0744   -0.3344 C.ar    1  UNL1        0.0000
     21 C           4.0459    0.0946   -0.6395 C.ar    1  UNL1        0.0000
     22 S           4.8191   -0.2414   -2.1639 S.2     1  UNL1        0.0000
     23 C           6.4228   -0.1684   -1.5007 C.ar    1  UNL1        0.0000
     24 C           6.3056    0.0963   -0.1849 C.ar    1  UNL1        0.0000
     25 C           7.0971    0.2898    0.9727 C.ar    1  UNL1        0.0000
     26 C           6.2099    0.5300    2.0434 C.ar    1  UNL1        0.0000
     27 N           4.8805    0.5003    1.6262 N.ar    1  UNL1        0.0000
     28 C           5.0207    0.2416    0.2904 C.ar    1  UNL1        0.0000
     29 H           1.3379   -1.2511   -2.4891 H       1  UNL1        0.0000
     30 H           1.5709   -2.3873   -0.2817 H       1  UNL1        0.0000
     31 H           2.5098    2.1285    0.5273 H       1  UNL1        0.0000
     32 H          -1.9811    2.6927    1.3285 H       1  UNL1        0.0000
     33 H          -4.0448    2.5742    1.4833 H       1  UNL1        0.0000
     34 H          -6.4461    2.3886    1.6452 H       1  UNL1        0.0000
     35 H          -7.6470    0.4177    0.7472 H       1  UNL1        0.0000
     36 H          -6.3786   -1.3980   -0.3360 H       1  UNL1        0.0000
     37 H          -4.9269   -3.0892   -1.3754 H       1  UNL1        0.0000
     38 H          -0.8644   -2.9043   -1.7204 H       1  UNL1        0.0000
     39 H           7.2987   -0.3239   -2.1134 H       1  UNL1        0.0000
     40 H           8.1759    0.2616    1.0493 H       1  UNL1        0.0000
     41 H           6.4257    0.7223    3.0866 H       1  UNL1        0.0000
     42 H           4.0208    0.6305    2.1456 H       1  UNL1        0.0000
@<TRIPOS>BOND
     1     1     2    1
     2     2     3    2
     3     3     4    1
     4     4     5   ar
     5     5     6   ar
     6     6     7   ar
     7     7     8   ar
     8     8     9   ar
     9     9    10   ar
    10    10    11   ar
    11    11    12   ar
    12    12    13   ar
    13    13    14   ar
    14    14    15   ar
    15    15    16   ar
    16    16    17   ar
    17    17    18   ar
    18    18    19   ar
    19    19    20   ar
    20     2    21    1
    21    21    22   ar
    22    22    23   ar
    23    23    24   ar
    24    24    25   ar
    25    25    26   ar
    26    26    27   ar
    27    27    28   ar
    28    20     1    1
    29    28    21   ar
    30    20     4   ar
    31    28    24   ar
    32    19     7   ar
    33    13     8   ar
    34    18    14   ar
    35     1    29    1
    36     1    30    1
    37     3    31    1
    38     6    32    1
    39     9    33    1
    40    10    34    1
    41    11    35    1
    42    12    36    1
    43    15    37    1
    44    17    38    1
    45    23    39    1
    46    25    40    1
    47    26    41    1
    48    27    42    1
