@<TRIPOS>MOLECULE
*****
 39 44 0 0 0
SMALL
GASTEIGER

@<TRIPOS>ATOM
      1 SI          1.2534    3.3540    1.1388 Si      1  UNL1        0.0000
      2 C           0.1246    1.8843    0.9389 C.2     1  UNL1        0.0000
      3 C           0.7759    0.7935    0.4778 C.ar    1  UNL1        0.0000
      4 C           0.1568   -0.5492    0.2634 C.ar    1  UNL1        0.0000
      5 C          -1.2482   -0.7780    0.0301 C.ar    1  UNL1        0.0000
      6 C          -1.6974   -2.0577    0.4181 C.ar    1  UNL1        0.0000
      7 N          -0.8869   -3.0569    0.7806 N.ar    1  UNL1        0.0000
      8 C           0.4442   -2.8527    0.7266 C.ar    1  UNL1        0.0000
      9 C           1.0481   -1.6370    0.4489 C.ar    1  UNL1        0.0000
     10 C           2.5247   -1.4771    0.3178 C.ar    1  UNL1        0.0000
     11 C           3.4000   -2.5591    0.1785 C.ar    1  UNL1        0.0000
     12 N           4.7410   -2.4700   -0.0011 N.ar    1  UNL1        0.0000
     13 C           5.2604   -1.2319   -0.0666 C.ar    1  UNL1        0.0000
     14 C           4.5044   -0.0810    0.0464 C.ar    1  UNL1        0.0000
     15 C           3.1235   -0.1995    0.2470 C.ar    1  UNL1        0.0000
     16 C           2.2441    0.9720    0.4235 C.ar    1  UNL1        0.0000
     17 C           2.6729    2.2235    0.6949 C.2     1  UNL1        0.0000
     18 C          -3.0488   -2.3433    0.4391 C.ar    1  UNL1        0.0000
     19 C          -4.0034   -1.4222    0.0234 C.ar    1  UNL1        0.0000
     20 C          -3.6071   -0.2041   -0.5174 C.ar    1  UNL1        0.0000
     21 C          -4.5813    0.6652   -1.0385 C.ar    1  UNL1        0.0000
     22 C          -4.2187    1.8433   -1.6829 C.ar    1  UNL1        0.0000
     23 C          -2.8764    2.1473   -1.8349 C.ar    1  UNL1        0.0000
     24 C          -1.9058    1.2926   -1.3024 C.ar    1  UNL1        0.0000
     25 C          -2.2282    0.1207   -0.5717 C.ar    1  UNL1        0.0000
     26 H           1.0216    4.3929    0.1066 H       1  UNL1        0.0000
     27 H           1.3329    3.8336    2.5390 H       1  UNL1        0.0000
     28 H          -0.9210    1.9749    1.1880 H       1  UNL1        0.0000
     29 H           1.0164   -3.7471    0.9535 H       1  UNL1        0.0000
     30 H           3.0503   -3.5874    0.1828 H       1  UNL1        0.0000
     31 H           6.3349   -1.1849   -0.2187 H       1  UNL1        0.0000
     32 H           4.9958    0.8819   -0.0225 H       1  UNL1        0.0000
     33 H           3.6858    2.5819    0.7747 H       1  UNL1        0.0000
     34 H          -3.3744   -3.3218    0.7868 H       1  UNL1        0.0000
     35 H          -5.0537   -1.7009    0.0696 H       1  UNL1        0.0000
     36 H          -5.6382    0.4149   -0.9686 H       1  UNL1        0.0000
     37 H          -4.9808    2.5001   -2.0928 H       1  UNL1        0.0000
     38 H          -2.5747    3.0401   -2.3763 H       1  UNL1        0.0000
     39 H          -0.8667    1.5451   -1.5005 H       1  UNL1        0.0000
@<TRIPOS>BOND
     1     1     2    1
     2     2     3    2
     3     3     4   ar
     4     4     5   ar
     5     5     6   ar
     6     6     7   ar
     7     7     8   ar
     8     8     9   ar
     9     9    10   ar
    10    10    11   ar
    11    11    12   ar
    12    12    13   ar
    13    13    14   ar
    14    14    15   ar
    15    15    16   ar
    16    16    17    2
    17     6    18   ar
    18    18    19   ar
    19    19    20   ar
    20    20    21   ar
    21    21    22   ar
    22    22    23   ar
    23    23    24   ar
    24    24    25   ar
    25    17     1    1
    26    25    20   ar
    27    16     3   ar
    28     9     4   ar
    29    15    10   ar
    30    25     5   ar
    31     1    26    1
    32     1    27    1
    33     2    28    1
    34     8    29    1
    35    11    30    1
    36    13    31    1
    37    14    32    1
    38    17    33    1
    39    18    34    1
    40    19    35    1
    41    21    36    1
    42    22    37    1
    43    23    38    1
    44    24    39    1
