@<TRIPOS>MOLECULE
*****
 33 38 0 0 0
SMALL
GASTEIGER

@<TRIPOS>ATOM
      1 SI         -2.2123    3.1845    0.9738 Si      1  UNL1        0.0000
      2 C          -3.1853    1.6082    0.8124 C.2     1  UNL1        0.0000
      3 C          -2.3954    0.5823    0.4346 C.ar    1  UNL1        0.0000
      4 C          -2.8461   -0.7455    0.0914 C.ar    1  UNL1        0.0000
      5 C          -4.1590   -1.2939    0.1499 C.ar    1  UNL1        0.0000
      6 C          -4.1860   -2.6005   -0.2963 C.ar    1  UNL1        0.0000
      7 S          -2.6360   -3.1541   -0.7829 S.2     1  UNL1        0.0000
      8 C          -1.9300   -1.6613   -0.3965 C.ar    1  UNL1        0.0000
      9 C          -0.5418   -1.3275   -0.5100 C.ar    1  UNL1        0.0000
     10 N           0.4590   -2.1340   -0.9777 N.ar    1  UNL1        0.0000
     11 C           1.6764   -1.4991   -0.8340 C.ar    1  UNL1        0.0000
     12 C           2.9869   -1.9496   -1.1529 C.ar    1  UNL1        0.0000
     13 C           4.1171   -1.1600   -0.8669 C.ar    1  UNL1        0.0000
     14 C           3.7766    0.0248   -0.2329 C.ar    1  UNL1        0.0000
     15 C           4.6707    0.9581    0.2318 C.ar    1  UNL1        0.0000
     16 O           4.0018    1.9721    0.8674 O.2     1  UNL1        0.0000
     17 C           2.6599    1.6836    0.8034 C.ar    1  UNL1        0.0000
     18 C           2.5065    0.5258    0.1065 C.ar    1  UNL1        0.0000
     19 C           1.3722   -0.2649   -0.2530 C.ar    1  UNL1        0.0000
     20 C          -0.0141   -0.0965   -0.1301 C.ar    1  UNL1        0.0000
     21 C          -0.9329    0.9349    0.2813 C.ar    1  UNL1        0.0000
     22 C          -0.6864    2.2484    0.4501 C.2     1  UNL1        0.0000
     23 H          -2.1300    3.6598    2.3754 H       1  UNL1        0.0000
     24 H          -2.6198    4.2056   -0.0203 H       1  UNL1        0.0000
     25 H          -4.2541    1.5945    0.9507 H       1  UNL1        0.0000
     26 H          -5.0414   -0.7697    0.4937 H       1  UNL1        0.0000
     27 H          -5.0407   -3.2593   -0.3633 H       1  UNL1        0.0000
     28 H           0.3291   -3.0709   -1.3322 H       1  UNL1        0.0000
     29 H           3.1252   -2.9250   -1.6151 H       1  UNL1        0.0000
     30 H           5.1260   -1.4809   -1.0887 H       1  UNL1        0.0000
     31 H           5.7475    1.0498    0.2243 H       1  UNL1        0.0000
     32 H           2.0241    2.3820    1.3211 H       1  UNL1        0.0000
     33 H           0.2319    2.7784    0.2850 H       1  UNL1        0.0000
@<TRIPOS>BOND
     1     1     2    1
     2     2     3    2
     3     3     4   ar
     4     4     5   ar
     5     5     6   ar
     6     6     7   ar
     7     7     8   ar
     8     8     9   ar
     9     9    10   ar
    10    10    11   ar
    11    11    12   ar
    12    12    13   ar
    13    13    14   ar
    14    14    15   ar
    15    15    16   ar
    16    16    17   ar
    17    17    18   ar
    18    18    19   ar
    19    19    20   ar
    20    20    21   ar
    21    21    22    2
    22    22     1    1
    23    21     3   ar
    24     8     4   ar
    25    20     9   ar
    26    19    11   ar
    27    18    14   ar
    28     1    23    1
    29     1    24    1
    30     2    25    1
    31     5    26    1
    32     6    27    1
    33    10    28    1
    34    12    29    1
    35    13    30    1
    36    15    31    1
    37    17    32    1
    38    22    33    1
