@<TRIPOS>MOLECULE
*****
 29 33 0 0 0
SMALL
GASTEIGER

@<TRIPOS>ATOM
      1 SI         -4.1858    1.7517    0.7008 Si      1  UNL1        0.0000
      2 C          -4.3487   -0.0042    0.0516 C.2     1  UNL1        0.0000
      3 C          -3.1340   -0.5453   -0.1639 C.ar    1  UNL1        0.0000
      4 C          -2.9009   -1.9038   -0.6705 C.ar    1  UNL1        0.0000
      5 C          -1.6446   -2.3690   -0.8583 C.ar    1  UNL1        0.0000
      6 C          -0.5828   -1.4777   -0.5408 C.ar    1  UNL1        0.0000
      7 N           0.7442   -1.8052   -0.6785 N.ar    1  UNL1        0.0000
      8 C           1.4765   -0.7090   -0.2810 C.ar    1  UNL1        0.0000
      9 C           2.7550   -0.2018   -0.1085 C.ar    1  UNL1        0.0000
     10 SI          4.5514   -0.5523   -0.2605 Si      1  UNL1        0.0000
     11 C           4.8851    1.2248    0.3944 C.2     1  UNL1        0.0000
     12 C           3.7360    1.8872    0.6541 C.2     1  UNL1        0.0000
     13 C           2.5901    1.0869    0.3714 C.ar    1  UNL1        0.0000
     14 O           1.2625    1.3968    0.5025 O.2     1  UNL1        0.0000
     15 C           0.6047    0.2710    0.0931 C.ar    1  UNL1        0.0000
     16 C          -0.7051   -0.1823   -0.0590 C.ar    1  UNL1        0.0000
     17 C          -1.9921    0.3628    0.1589 C.ar    1  UNL1        0.0000
     18 C          -2.3303    1.5811    0.6148 C.2     1  UNL1        0.0000
     19 H          -4.6892    1.8781    2.0901 H       1  UNL1        0.0000
     20 H          -4.7180    2.7493   -0.2591 H       1  UNL1        0.0000
     21 H          -5.3122   -0.4607   -0.1058 H       1  UNL1        0.0000
     22 H          -3.7611   -2.5265   -0.8909 H       1  UNL1        0.0000
     23 H          -1.4591   -3.3695   -1.2316 H       1  UNL1        0.0000
     24 H           1.1473   -2.6734   -1.0054 H       1  UNL1        0.0000
     25 H           5.0430   -0.6991   -1.6529 H       1  UNL1        0.0000
     26 H           5.0717   -1.5675    0.6887 H       1  UNL1        0.0000
     27 H           5.8942    1.5844    0.5153 H       1  UNL1        0.0000
     28 H           3.6608    2.8982    1.0299 H       1  UNL1        0.0000
     29 H          -1.6586    2.3751    0.9010 H       1  UNL1        0.0000
@<TRIPOS>BOND
     1     1     2    1
     2     2     3    2
     3     3     4   ar
     4     4     5   ar
     5     5     6   ar
     6     6     7   ar
     7     7     8   ar
     8     8     9   ar
     9     9    10    1
    10    10    11    1
    11    11    12    2
    12    12    13    1
    13    13    14   ar
    14    14    15   ar
    15    15    16   ar
    16    16    17   ar
    17    17    18    2
    18    18     1    1
    19    17     3   ar
    20    16     6   ar
    21    15     8   ar
    22    13     9   ar
    23     1    19    1
    24     1    20    1
    25     2    21    1
    26     4    22    1
    27     5    23    1
    28     7    24    1
    29    10    25    1
    30    10    26    1
    31    11    27    1
    32    12    28    1
    33    18    29    1
