@<TRIPOS>MOLECULE
*****
 37 42 0 0 0
SMALL
GASTEIGER

@<TRIPOS>ATOM
      1 SI          4.5158    1.8999   -0.7645 Si      1  UNL1        0.0000
      2 C           4.9457    0.2399   -0.0349 C.2     1  UNL1        0.0000
      3 C           3.8298   -0.4311    0.3068 C.ar    1  UNL1        0.0000
      4 C           3.8256   -1.6817    1.0415 C.ar    1  UNL1        0.0000
      5 C           2.6498   -2.1868    1.4584 C.ar    1  UNL1        0.0000
      6 C           1.3940   -1.5348    1.1114 C.ar    1  UNL1        0.0000
      7 SI         -0.2449   -2.1533    1.7998 Si      1  UNL1        0.0000
      8 C          -1.1349   -0.8251    0.8084 C.ar    1  UNL1        0.0000
      9 C          -0.1337   -0.1072    0.0527 C.ar    1  UNL1        0.0000
     10 C           1.2849   -0.4246    0.3273 C.ar    1  UNL1        0.0000
     11 C           2.5402    0.2484   -0.0176 C.ar    1  UNL1        0.0000
     12 C           2.7102    1.4966   -0.4973 C.2     1  UNL1        0.0000
     13 C          -0.7435    0.7056   -0.9004 C.ar    1  UNL1        0.0000
     14 C          -0.1938    1.3424   -1.9851 C.ar    1  UNL1        0.0000
     15 N          -1.2058    2.0056   -2.6454 N.ar    1  UNL1        0.0000
     16 C          -2.4166    1.7337   -2.0509 C.ar    1  UNL1        0.0000
     17 C          -2.1647    0.8939   -0.9926 C.ar    1  UNL1        0.0000
     18 C          -3.1249    0.2627   -0.1596 C.ar    1  UNL1        0.0000
     19 C          -4.5239    0.4324   -0.2094 C.ar    1  UNL1        0.0000
     20 C          -5.3172   -0.3100    0.6496 C.ar    1  UNL1        0.0000
     21 C          -4.6888   -1.1925    1.5092 C.ar    1  UNL1        0.0000
     22 N          -3.3475   -1.3786    1.5740 N.ar    1  UNL1        0.0000
     23 C          -2.5471   -0.6597    0.7614 C.ar    1  UNL1        0.0000
     24 H           4.9763    3.0306    0.0772 H       1  UNL1        0.0000
     25 H           4.8617    1.9999   -2.2036 H       1  UNL1        0.0000
     26 H           5.9671   -0.0559    0.1422 H       1  UNL1        0.0000
     27 H           4.7654   -2.1645    1.2837 H       1  UNL1        0.0000
     28 H           2.6318   -3.1073    2.0349 H       1  UNL1        0.0000
     29 H          -0.3048   -1.9588    3.2736 H       1  UNL1        0.0000
     30 H          -0.5171   -3.5416    1.3387 H       1  UNL1        0.0000
     31 H           1.9567    2.2380   -0.6948 H       1  UNL1        0.0000
     32 H           0.8086    1.3754   -2.3841 H       1  UNL1        0.0000
     33 H          -1.0818    2.5633   -3.4806 H       1  UNL1        0.0000
     34 H          -3.3315    2.1314   -2.4674 H       1  UNL1        0.0000
     35 H          -4.9782    1.1266   -0.9082 H       1  UNL1        0.0000
     36 H          -6.3963   -0.2106    0.6464 H       1  UNL1        0.0000
     37 H          -5.2669   -1.8019    2.1989 H       1  UNL1        0.0000
@<TRIPOS>BOND
     1     1     2    1
     2     2     3    2
     3     3     4   ar
     4     4     5   ar
     5     5     6   ar
     6     6     7    1
     7     7     8    1
     8     8     9   ar
     9     9    10    1
    10    10    11   ar
    11    11    12    2
    12     9    13   ar
    13    13    14   ar
    14    14    15   ar
    15    15    16   ar
    16    16    17   ar
    17    17    18   ar
    18    18    19   ar
    19    19    20   ar
    20    20    21   ar
    21    21    22   ar
    22    22    23   ar
    23    12     1    1
    24    17    13   ar
    25    23    18   ar
    26    11     3   ar
    27    10     6   ar
    28    23     8   ar
    29     1    24    1
    30     1    25    1
    31     2    26    1
    32     4    27    1
    33     5    28    1
    34     7    29    1
    35     7    30    1
    36    12    31    1
    37    14    32    1
    38    15    33    1
    39    16    34    1
    40    19    35    1
    41    20    36    1
    42    21    37    1
