@<TRIPOS>MOLECULE
*****
 41 47 0 0 0
SMALL
GASTEIGER

@<TRIPOS>ATOM
      1 SI         -5.1424    2.1271   -0.1625 Si      1  UNL1        0.0000
      2 C          -5.4291    0.2943   -0.3097 C.2     1  UNL1        0.0000
      3 C          -4.2660   -0.3835   -0.2641 C.ar    1  UNL1        0.0000
      4 C          -4.1911   -1.8199   -0.3785 C.ar    1  UNL1        0.0000
      5 C          -2.9996   -2.4327   -0.3425 C.ar    1  UNL1        0.0000
      6 C          -1.7650   -1.6577   -0.1785 C.ar    1  UNL1        0.0000
      7 C          -0.5150   -2.2583   -0.0624 C.ar    1  UNL1        0.0000
      8 C          -0.2432   -3.6057   -0.0062 C.ar    1  UNL1        0.0000
      9 N           1.1000   -3.7389    0.2475 N.ar    1  UNL1        0.0000
     10 C           1.6755   -2.4945    0.3628 C.ar    1  UNL1        0.0000
     11 C           0.7161   -1.5502    0.0743 C.ar    1  UNL1        0.0000
     12 C           0.8563   -0.1311    0.0997 C.ar    1  UNL1        0.0000
     13 C          -0.4358    0.5017    0.1512 C.ar    1  UNL1        0.0000
     14 N          -0.4660    1.8211    0.4167 N.ar    1  UNL1        0.0000
     15 C           0.6678    2.5301    0.6372 C.ar    1  UNL1        0.0000
     16 C           1.9590    2.0546    0.5132 C.ar    1  UNL1        0.0000
     17 C           3.0668    2.9510    0.7382 C.ar    1  UNL1        0.0000
     18 C           4.4193    2.6179    0.5523 C.ar    1  UNL1        0.0000
     19 C           4.5433    1.3342    0.0420 C.ar    1  UNL1        0.0000
     20 C           5.7649    0.8370   -0.3421 C.ar    1  UNL1        0.0000
     21 S           5.5987   -0.6971   -1.0871 S.2     1  UNL1        0.0000
     22 C           3.8904   -0.6742   -0.8985 C.ar    1  UNL1        0.0000
     23 C           3.4499    0.4115   -0.1756 C.ar    1  UNL1        0.0000
     24 C           2.0714    0.6856    0.1386 C.ar    1  UNL1        0.0000
     25 C          -1.6859   -0.2259   -0.0424 C.ar    1  UNL1        0.0000
     26 C          -3.0407    0.4478   -0.1023 C.ar    1  UNL1        0.0000
     27 C          -3.3179    1.7693   -0.0492 C.2     1  UNL1        0.0000
     28 H          -5.7031    2.6870    1.0917 H       1  UNL1        0.0000
     29 H          -5.5130    2.8563   -1.4002 H       1  UNL1        0.0000
     30 H          -6.4202   -0.1138   -0.4259 H       1  UNL1        0.0000
     31 H          -5.1053   -2.3907   -0.4999 H       1  UNL1        0.0000
     32 H          -2.9441   -3.5100   -0.4357 H       1  UNL1        0.0000
     33 H          -0.8709   -4.4836   -0.0712 H       1  UNL1        0.0000
     34 H           1.5804   -4.6176    0.3957 H       1  UNL1        0.0000
     35 H           2.7087   -2.4201    0.6700 H       1  UNL1        0.0000
     36 H           0.4769    3.5685    0.9017 H       1  UNL1        0.0000
     37 H           2.8514    3.9718    1.0620 H       1  UNL1        0.0000
     38 H           5.2279    3.3174    0.7157 H       1  UNL1        0.0000
     39 H           6.7401    1.2988   -0.2693 H       1  UNL1        0.0000
     40 H           3.3200   -1.4689   -1.3543 H       1  UNL1        0.0000
     41 H          -2.6303    2.5914    0.0476 H       1  UNL1        0.0000
@<TRIPOS>BOND
     1     1     2    1
     2     2     3    2
     3     3     4   ar
     4     4     5   ar
     5     5     6   ar
     6     6     7   ar
     7     7     8   ar
     8     8     9   ar
     9     9    10   ar
    10    10    11   ar
    11    11    12   ar
    12    12    13   ar
    13    13    14   ar
    14    14    15   ar
    15    15    16   ar
    16    16    17   ar
    17    17    18   ar
    18    18    19   ar
    19    19    20   ar
    20    20    21   ar
    21    21    22   ar
    22    22    23   ar
    23    23    24   ar
    24    13    25   ar
    25    25    26   ar
    26    26    27    2
    27    27     1    1
    28    26     3   ar
    29    25     6   ar
    30    11     7   ar
    31    24    12   ar
    32    24    16   ar
    33    23    19   ar
    34     1    28    1
    35     1    29    1
    36     2    30    1
    37     4    31    1
    38     5    32    1
    39     8    33    1
    40     9    34    1
    41    10    35    1
    42    15    36    1
    43    17    37    1
    44    18    38    1
    45    20    39    1
    46    22    40    1
    47    27    41    1
