@<TRIPOS>MOLECULE
*****
 37 42 0 0 0
SMALL
GASTEIGER

@<TRIPOS>ATOM
      1 SI         -4.2753    1.1411    1.8721 Si      1  UNL1        0.0000
      2 C          -4.8273    0.2074    0.3552 C.2     1  UNL1        0.0000
      3 C          -3.7691   -0.2876   -0.3146 C.ar    1  UNL1        0.0000
      4 C          -3.8845   -1.2161   -1.4128 C.ar    1  UNL1        0.0000
      5 C          -2.7844   -1.8350   -1.8690 C.ar    1  UNL1        0.0000
      6 C          -1.4344   -1.5174   -1.3448 C.ar    1  UNL1        0.0000
      7 C          -0.3593   -2.2805   -1.7907 C.ar    1  UNL1        0.0000
      8 C           0.9394   -1.9858   -1.3718 C.ar    1  UNL1        0.0000
      9 C           1.2577   -0.8552   -0.5978 C.ar    1  UNL1        0.0000
     10 C           2.6479   -0.6263   -0.2724 C.ar    1  UNL1        0.0000
     11 N           3.5807   -1.5473   -0.6141 N.ar    1  UNL1        0.0000
     12 C           4.8843   -1.3553   -0.3013 C.ar    1  UNL1        0.0000
     13 C           5.3666   -0.2471    0.3594 C.ar    1  UNL1        0.0000
     14 C           4.4546    0.7297    0.7157 C.ar    1  UNL1        0.0000
     15 C           3.0855    0.5483    0.4016 C.ar    1  UNL1        0.0000
     16 C           2.0387    1.4695    0.6443 C.ar    1  UNL1        0.0000
     17 C           2.2406    2.7247    1.1748 C.ar    1  UNL1        0.0000
     18 S           0.8001    3.6503    1.1804 S.2     1  UNL1        0.0000
     19 C          -0.0887    2.3702    0.4675 C.ar    1  UNL1        0.0000
     20 C           0.6518    1.2151    0.3381 C.ar    1  UNL1        0.0000
     21 C           0.1490   -0.0085   -0.2124 C.ar    1  UNL1        0.0000
     22 C          -1.2072   -0.4407   -0.4487 C.ar    1  UNL1        0.0000
     23 C          -2.4372    0.0766    0.2263 C.ar    1  UNL1        0.0000
     24 C          -2.5109    0.7135    1.4152 C.2     1  UNL1        0.0000
     25 H          -4.5431    2.5962    1.7723 H       1  UNL1        0.0000
     26 H          -4.7101    0.4906    3.1316 H       1  UNL1        0.0000
     27 H          -5.8713    0.0294    0.1523 H       1  UNL1        0.0000
     28 H          -4.8645   -1.4512   -1.8134 H       1  UNL1        0.0000
     29 H          -2.8627   -2.5678   -2.6656 H       1  UNL1        0.0000
     30 H          -0.5146   -3.1311   -2.4502 H       1  UNL1        0.0000
     31 H           1.7353   -2.6487   -1.7152 H       1  UNL1        0.0000
     32 H           5.5515   -2.1544   -0.6130 H       1  UNL1        0.0000
     33 H           6.4219   -0.1451    0.5829 H       1  UNL1        0.0000
     34 H           4.8049    1.6202    1.2267 H       1  UNL1        0.0000
     35 H           3.1540    3.1850    1.5228 H       1  UNL1        0.0000
     36 H          -1.1137    2.5595    0.1855 H       1  UNL1        0.0000
     37 H          -1.7065    0.9735    2.0830 H       1  UNL1        0.0000
@<TRIPOS>BOND
     1     1     2    1
     2     2     3    2
     3     3     4   ar
     4     4     5   ar
     5     5     6   ar
     6     6     7   ar
     7     7     8   ar
     8     8     9   ar
     9     9    10   ar
    10    10    11   ar
    11    11    12   ar
    12    12    13   ar
    13    13    14   ar
    14    14    15   ar
    15    15    16   ar
    16    16    17   ar
    17    17    18   ar
    18    18    19   ar
    19    19    20   ar
    20    20    21   ar
    21    21    22   ar
    22    22    23   ar
    23    23    24    2
    24    24     1    1
    25    23     3   ar
    26    22     6   ar
    27    21     9   ar
    28    15    10   ar
    29    20    16   ar
    30     1    25    1
    31     1    26    1
    32     2    27    1
    33     4    28    1
    34     5    29    1
    35     7    30    1
    36     8    31    1
    37    12    32    1
    38    13    33    1
    39    14    34    1
    40    17    35    1
    41    19    36    1
    42    24    37    1
