@<TRIPOS>MOLECULE
*****
 37 41 0 0 0
SMALL
GASTEIGER

@<TRIPOS>ATOM
      1 SI         -4.1894   -0.2226    2.5830 Si      1  UNL1        0.0000
      2 C          -5.0883    0.3916    1.0601 C.2     1  UNL1        0.0000
      3 C          -4.2339    0.5347    0.0303 C.ar    1  UNL1        0.0000
      4 C          -4.5951    0.9850   -1.2982 C.ar    1  UNL1        0.0000
      5 C          -3.6330    1.0744   -2.2352 C.ar    1  UNL1        0.0000
      6 C          -2.2392    0.7353   -1.9529 C.ar    1  UNL1        0.0000
      7 C          -1.8173    0.3164   -0.7361 C.ar    1  UNL1        0.0000
      8 C          -0.3989    0.0075   -0.5797 C.ar    1  UNL1        0.0000
      9 C           0.2418   -1.1638   -1.0546 C.ar    1  UNL1        0.0000
     10 C           1.6417   -1.4452   -0.8704 C.ar    1  UNL1        0.0000
     11 C           2.5433   -0.5797   -0.2007 C.ar    1  UNL1        0.0000
     12 C           3.9490   -0.8683    0.0007 C.ar    1  UNL1        0.0000
     13 C           4.5189   -1.8993    0.7221 C.ar    1  UNL1        0.0000
     14 C           5.9435   -1.8755    0.6737 C.ar    1  UNL1        0.0000
     15 C           6.4141   -0.8357   -0.0960 C.ar    1  UNL1        0.0000
     16 S           5.1439    0.0989   -0.7572 S.2     1  UNL1        0.0000
     17 C           1.8928    0.5647    0.2705 C.ar    1  UNL1        0.0000
     18 C           2.4037    1.6133    0.9920 C.ar    1  UNL1        0.0000
     19 O           1.4148    2.5224    1.2525 O.2     1  UNL1        0.0000
     20 C           0.2592    2.0464    0.6972 C.ar    1  UNL1        0.0000
     21 C           0.5006    0.8406    0.0908 C.ar    1  UNL1        0.0000
     22 C          -2.8217    0.1885    0.3248 C.ar    1  UNL1        0.0000
     23 C          -2.6046   -0.2273    1.5893 C.2     1  UNL1        0.0000
     24 H          -4.6164   -1.5870    2.9771 H       1  UNL1        0.0000
     25 H          -4.1748    0.7836    3.6720 H       1  UNL1        0.0000
     26 H          -6.1490    0.5839    1.0665 H       1  UNL1        0.0000
     27 H          -5.6254    1.2400   -1.5177 H       1  UNL1        0.0000
     28 H          -3.8711    1.4087   -3.2403 H       1  UNL1        0.0000
     29 H          -1.5442    0.8487   -2.7815 H       1  UNL1        0.0000
     30 H          -0.3578   -1.9037   -1.5870 H       1  UNL1        0.0000
     31 H           2.0248   -2.3808   -1.2807 H       1  UNL1        0.0000
     32 H           3.9398   -2.6344    1.2683 H       1  UNL1        0.0000
     33 H           6.5886   -2.5862    1.1755 H       1  UNL1        0.0000
     34 H           7.4432   -0.5803   -0.3081 H       1  UNL1        0.0000
     35 H           3.3789    1.8670    1.3832 H       1  UNL1        0.0000
     36 H          -0.6137    2.6703    0.8302 H       1  UNL1        0.0000
     37 H          -1.6688   -0.5324    2.0298 H       1  UNL1        0.0000
@<TRIPOS>BOND
     1     1     2    1
     2     2     3    2
     3     3     4   ar
     4     4     5   ar
     5     5     6   ar
     6     6     7   ar
     7     7     8    1
     8     8     9   ar
     9     9    10   ar
    10    10    11   ar
    11    11    12    1
    12    12    13   ar
    13    13    14   ar
    14    14    15   ar
    15    15    16   ar
    16    11    17   ar
    17    17    18   ar
    18    18    19   ar
    19    19    20   ar
    20    20    21   ar
    21     7    22   ar
    22    22    23    2
    23    23     1    1
    24    22     3   ar
    25    21     8   ar
    26    16    12   ar
    27    21    17   ar
    28     1    24    1
    29     1    25    1
    30     2    26    1
    31     4    27    1
    32     5    28    1
    33     6    29    1
    34     9    30    1
    35    10    31    1
    36    13    32    1
    37    14    33    1
    38    15    34    1
    39    18    35    1
    40    20    36    1
    41    23    37    1
