@<TRIPOS>MOLECULE
*****
 49 54 0 0 0
SMALL
GASTEIGER

@<TRIPOS>ATOM
      1 SI         -6.2102   -0.5245    2.7257 Si      1  UNL1        0.0000
      2 C          -7.2782   -0.8320    1.2192 C.2     1  UNL1        0.0000
      3 C          -6.5280   -0.8612    0.1023 C.ar    1  UNL1        0.0000
      4 C          -7.0330   -1.0768   -1.2401 C.ar    1  UNL1        0.0000
      5 C          -6.1636   -1.0725   -2.2683 C.ar    1  UNL1        0.0000
      6 C          -4.7305   -0.8567   -2.0720 C.ar    1  UNL1        0.0000
      7 C          -4.1784   -0.6493   -0.8499 C.ar    1  UNL1        0.0000
      8 C          -2.7251   -0.4415   -0.7728 C.ar    1  UNL1        0.0000
      9 C          -2.1479    0.7803   -1.1256 C.ar    1  UNL1        0.0000
     10 C          -0.7687    0.9469   -1.0130 C.ar    1  UNL1        0.0000
     11 C           0.0008   -0.1171   -0.5463 C.ar    1  UNL1        0.0000
     12 N          -0.5310   -1.3197   -0.2150 N.ar    1  UNL1        0.0000
     13 C          -1.8751   -1.4495   -0.3265 C.ar    1  UNL1        0.0000
     14 C           1.4651    0.0127   -0.4337 C.ar    1  UNL1        0.0000
     15 C           2.2210   -0.6944   -1.3031 C.ar    1  UNL1        0.0000
     16 C           3.6803   -0.6336   -1.3237 C.ar    1  UNL1        0.0000
     17 C           4.4027    0.1252   -0.4693 C.ar    1  UNL1        0.0000
     18 C           5.8194    0.0597   -0.5909 C.ar    1  UNL1        0.0000
     19 C           6.7104    0.3280   -1.6135 C.ar    1  UNL1        0.0000
     20 C           8.0134    0.0506   -1.1313 C.ar    1  UNL1        0.0000
     21 C           7.8860   -0.3877    0.1682 C.ar    1  UNL1        0.0000
     22 N           6.5519   -0.3827    0.4860 N.ar    1  UNL1        0.0000
     23 C           3.6523    0.9299    0.5075 C.ar    1  UNL1        0.0000
     24 C           4.1865    1.7656    1.4244 C.2     1  UNL1        0.0000
     25 SI          2.8646    2.5678    2.4647 Si      1  UNL1        0.0000
     26 C           1.5871    1.6342    1.4724 C.2     1  UNL1        0.0000
     27 C           2.1645    0.8684    0.5264 C.ar    1  UNL1        0.0000
     28 C          -5.0751   -0.6441    0.3094 C.ar    1  UNL1        0.0000
     29 C          -4.7204   -0.4453    1.5942 C.2     1  UNL1        0.0000
     30 H          -6.1686   -1.7015    3.6296 H       1  UNL1        0.0000
     31 H          -6.5026    0.7762    3.3751 H       1  UNL1        0.0000
     32 H          -8.3454   -0.9626    1.2976 H       1  UNL1        0.0000
     33 H          -8.0938   -1.2365   -1.3971 H       1  UNL1        0.0000
     34 H          -6.5108   -1.2301   -3.2858 H       1  UNL1        0.0000
     35 H          -4.1199   -0.8746   -2.9719 H       1  UNL1        0.0000
     36 H          -2.7659    1.6015   -1.4830 H       1  UNL1        0.0000
     37 H          -0.3064    1.8913   -1.2821 H       1  UNL1        0.0000
     38 H          -2.2626   -2.4246   -0.0402 H       1  UNL1        0.0000
     39 H           1.7592   -1.3501   -2.0356 H       1  UNL1        0.0000
     40 H           4.1686   -1.2606   -2.0681 H       1  UNL1        0.0000
     41 H           6.4474    0.6898   -2.6014 H       1  UNL1        0.0000
     42 H           8.9430    0.1547   -1.6775 H       1  UNL1        0.0000
     43 H           8.6255   -0.7066    0.8908 H       1  UNL1        0.0000
     44 H           6.1589   -0.6689    1.3716 H       1  UNL1        0.0000
     45 H           5.2302    1.9890    1.5784 H       1  UNL1        0.0000
     46 H           2.9175    2.1267    3.8790 H       1  UNL1        0.0000
     47 H           2.7821    4.0312    2.2583 H       1  UNL1        0.0000
     48 H           0.5352    1.7360    1.6835 H       1  UNL1        0.0000
     49 H          -3.7326   -0.2610    1.9858 H       1  UNL1        0.0000
@<TRIPOS>BOND
     1     1     2    1
     2     2     3    2
     3     3     4   ar
     4     4     5   ar
     5     5     6   ar
     6     6     7   ar
     7     7     8    1
     8     8     9   ar
     9     9    10   ar
    10    10    11   ar
    11    11    12   ar
    12    12    13   ar
    13    11    14    1
    14    14    15   ar
    15    15    16   ar
    16    16    17   ar
    17    17    18    1
    18    18    19   ar
    19    19    20   ar
    20    20    21   ar
    21    21    22   ar
    22    17    23   ar
    23    23    24    2
    24    24    25    1
    25    25    26    1
    26    26    27    2
    27     7    28   ar
    28    28    29    2
    29    29     1    1
    30    28     3   ar
    31    13     8   ar
    32    27    14   ar
    33    22    18   ar
    34    27    23   ar
    35     1    30    1
    36     1    31    1
    37     2    32    1
    38     4    33    1
    39     5    34    1
    40     6    35    1
    41     9    36    1
    42    10    37    1
    43    13    38    1
    44    15    39    1
    45    16    40    1
    46    19    41    1
    47    20    42    1
    48    21    43    1
    49    22    44    1
    50    24    45    1
    51    25    46    1
    52    25    47    1
    53    26    48    1
    54    29    49    1
