@<TRIPOS>MOLECULE
*****
 42 47 0 0 0
SMALL
GASTEIGER

@<TRIPOS>ATOM
      1 SI         -6.5748    2.0894   -0.4302 Si      1  UNL1        0.0000
      2 C          -7.0691    0.3128   -0.1428 C.2     1  UNL1        0.0000
      3 C          -5.9895   -0.4457    0.1225 C.ar    1  UNL1        0.0000
      4 C          -6.0227   -1.8744    0.3512 C.ar    1  UNL1        0.0000
      5 C          -4.8634   -2.5189    0.5712 C.ar    1  UNL1        0.0000
      6 C          -3.5821   -1.8182    0.6069 C.ar    1  UNL1        0.0000
      7 C          -3.4524   -0.4800    0.4222 C.ar    1  UNL1        0.0000
      8 C          -2.1253    0.0550    0.5392 C.ar    1  UNL1        0.0000
      9 C          -1.6895    1.2538    1.0896 C.ar    1  UNL1        0.0000
     10 C          -0.2796    1.3054    0.9720 C.ar    1  UNL1        0.0000
     11 C           0.1153    0.1322    0.3618 C.ar    1  UNL1        0.0000
     12 O          -0.9991   -0.6183    0.1117 O.2     1  UNL1        0.0000
     13 C           1.4262   -0.3221    0.0126 C.ar    1  UNL1        0.0000
     14 C           1.8021   -1.5033   -0.5902 C.ar    1  UNL1        0.0000
     15 C           3.2119   -1.4908   -0.7174 C.ar    1  UNL1        0.0000
     16 C           3.6852   -0.2958   -0.2008 C.ar    1  UNL1        0.0000
     17 N           2.5743    0.3938    0.2461 N.ar    1  UNL1        0.0000
     18 C           5.0419    0.2270   -0.0906 C.ar    1  UNL1        0.0000
     19 C           5.3740    1.5856   -0.1827 C.ar    1  UNL1        0.0000
     20 N           6.6166    2.1630   -0.0813 N.ar    1  UNL1        0.0000
     21 C           7.7239    1.3925    0.1215 C.ar    1  UNL1        0.0000
     22 C           7.5543   -0.0022    0.2266 C.ar    1  UNL1        0.0000
     23 N           8.5254   -0.9081    0.4260 N.ar    1  UNL1        0.0000
     24 S           7.7787   -2.3885    0.4782 S.2     1  UNL1        0.0000
     25 N           6.1986   -1.9463    0.2526 N.ar    1  UNL1        0.0000
     26 C           6.1735   -0.6066    0.1177 C.ar    1  UNL1        0.0000
     27 C          -4.6882    0.2745    0.1441 C.ar    1  UNL1        0.0000
     28 C          -4.7934    1.5902   -0.1393 C.2     1  UNL1        0.0000
     29 H          -7.0798    2.9989    0.6265 H       1  UNL1        0.0000
     30 H          -6.8175    2.5317   -1.8242 H       1  UNL1        0.0000
     31 H          -8.0953   -0.0100   -0.2150 H       1  UNL1        0.0000
     32 H          -6.9689   -2.4026    0.3290 H       1  UNL1        0.0000
     33 H          -4.8497   -3.5915    0.7385 H       1  UNL1        0.0000
     34 H          -2.7147   -2.4404    0.8178 H       1  UNL1        0.0000
     35 H          -2.3260    2.0015    1.5418 H       1  UNL1        0.0000
     36 H           0.3623    2.1069    1.3059 H       1  UNL1        0.0000
     37 H           1.1297   -2.2930   -0.9015 H       1  UNL1        0.0000
     38 H           3.8182   -2.2776   -1.1501 H       1  UNL1        0.0000
     39 H           2.5989    1.2923    0.7057 H       1  UNL1        0.0000
     40 H           4.5915    2.3206   -0.3711 H       1  UNL1        0.0000
     41 H           8.6820    1.8901    0.1916 H       1  UNL1        0.0000
     42 H          -4.0036    2.3175   -0.2221 H       1  UNL1        0.0000
@<TRIPOS>BOND
     1     1     2    1
     2     2     3    2
     3     3     4   ar
     4     4     5   ar
     5     5     6   ar
     6     6     7   ar
     7     7     8    1
     8     8     9   ar
     9     9    10   ar
    10    10    11   ar
    11    11    12   ar
    12    11    13    1
    13    13    14   ar
    14    14    15   ar
    15    15    16   ar
    16    16    17   ar
    17    16    18    1
    18    18    19   ar
    19    19    20   ar
    20    20    21   ar
    21    21    22   ar
    22    22    23   ar
    23    23    24   ar
    24    24    25   ar
    25    25    26   ar
    26     7    27   ar
    27    27    28    2
    28    28     1    1
    29    27     3   ar
    30    12     8   ar
    31    17    13   ar
    32    26    18   ar
    33    26    22   ar
    34     1    29    1
    35     1    30    1
    36     2    31    1
    37     4    32    1
    38     5    33    1
    39     6    34    1
    40     9    35    1
    41    10    36    1
    42    14    37    1
    43    15    38    1
    44    17    39    1
    45    19    40    1
    46    21    41    1
    47    28    42    1
