@<TRIPOS>MOLECULE
*****
 39 43 0 0 0
SMALL
GASTEIGER

@<TRIPOS>ATOM
      1 SI          6.3400   -1.3729   -0.6203 Si      1  UNL1        0.0000
      2 C           6.4274    0.4908   -0.6849 C.2     1  UNL1        0.0000
      3 C           5.2345    1.0351   -0.3816 C.ar    1  UNL1        0.0000
      4 C           4.9529    2.4548   -0.3798 C.ar    1  UNL1        0.0000
      5 C           3.7054    2.8641   -0.0903 C.ar    1  UNL1        0.0000
      6 C           2.6382    1.9228    0.2405 C.ar    1  UNL1        0.0000
      7 C           2.8103    0.5774    0.2816 C.ar    1  UNL1        0.0000
      8 C           1.6693   -0.2014    0.6712 C.ar    1  UNL1        0.0000
      9 C           1.5923   -1.3388    1.4676 C.ar    1  UNL1        0.0000
     10 C           0.2330   -1.7232    1.5615 C.ar    1  UNL1        0.0000
     11 C          -0.4823   -0.8044    0.8269 C.ar    1  UNL1        0.0000
     12 O           0.3763    0.1138    0.3004 O.2     1  UNL1        0.0000
     13 C          -1.8935   -0.6157    0.5175 C.ar    1  UNL1        0.0000
     14 C          -2.3417    0.4079   -0.3210 C.ar    1  UNL1        0.0000
     15 C          -3.7048    0.5508   -0.5905 C.ar    1  UNL1        0.0000
     16 C          -4.6081   -0.3380   -0.0142 C.ar    1  UNL1        0.0000
     17 N          -4.2038   -1.3425    0.8041 N.ar    1  UNL1        0.0000
     18 C          -2.8721   -1.4533    1.0451 C.ar    1  UNL1        0.0000
     19 C          -6.0548   -0.2119   -0.2804 C.ar    1  UNL1        0.0000
     20 N          -6.5975    0.7165   -1.0532 N.ar    1  UNL1        0.0000
     21 C          -7.9687    0.5624   -1.0968 C.ar    1  UNL1        0.0000
     22 C          -8.4732   -0.4826   -0.3579 C.ar    1  UNL1        0.0000
     23 S          -7.1931   -1.3073    0.4225 S.2     1  UNL1        0.0000
     24 C           4.1516    0.0685   -0.0579 C.ar    1  UNL1        0.0000
     25 C           4.5338   -1.2230   -0.1485 C.2     1  UNL1        0.0000
     26 H           6.5265   -1.9989   -1.9511 H       1  UNL1        0.0000
     27 H           7.1593   -1.9427    0.4764 H       1  UNL1        0.0000
     28 H           7.3340    1.0075   -0.9561 H       1  UNL1        0.0000
     29 H           5.7391    3.1609   -0.6212 H       1  UNL1        0.0000
     30 H           3.4573    3.9211   -0.0865 H       1  UNL1        0.0000
     31 H           1.6771    2.3719    0.4819 H       1  UNL1        0.0000
     32 H           2.4330   -1.8270    1.9409 H       1  UNL1        0.0000
     33 H          -0.1650   -2.5669    2.1070 H       1  UNL1        0.0000
     34 H          -1.6382    1.1025   -0.7746 H       1  UNL1        0.0000
     35 H          -4.0517    1.3469   -1.2433 H       1  UNL1        0.0000
     36 H          -2.6161   -2.2759    1.7076 H       1  UNL1        0.0000
     37 H          -8.5601    1.2488   -1.6906 H       1  UNL1        0.0000
     38 H          -9.5014   -0.7926   -0.2420 H       1  UNL1        0.0000
     39 H           3.9347   -2.1055    0.0004 H       1  UNL1        0.0000
@<TRIPOS>BOND
     1     1     2    1
     2     2     3    2
     3     3     4   ar
     4     4     5   ar
     5     5     6   ar
     6     6     7   ar
     7     7     8    1
     8     8     9   ar
     9     9    10   ar
    10    10    11   ar
    11    11    12   ar
    12    11    13    1
    13    13    14   ar
    14    14    15   ar
    15    15    16   ar
    16    16    17   ar
    17    17    18   ar
    18    16    19    1
    19    19    20   ar
    20    20    21   ar
    21    21    22   ar
    22    22    23   ar
    23     7    24   ar
    24    24    25    2
    25    25     1    1
    26    24     3   ar
    27    12     8   ar
    28    18    13   ar
    29    23    19   ar
    30     1    26    1
    31     1    27    1
    32     2    28    1
    33     4    29    1
    34     5    30    1
    35     6    31    1
    36     9    32    1
    37    10    33    1
    38    14    34    1
    39    15    35    1
    40    18    36    1
    41    21    37    1
    42    22    38    1
    43    25    39    1
