@<TRIPOS>MOLECULE
*****
 38 44 0 0 0
SMALL
GASTEIGER

@<TRIPOS>ATOM
      1 SI          3.0943    1.0623    0.6645 Si      1  UNL1        0.0000
      2 C           3.4914   -0.5556   -0.3781 C.2     1  UNL1        0.0000
      3 C           2.3634   -1.1896   -0.7858 C.2     1  UNL1        0.0000
      4 C           1.2220   -0.4890   -0.3339 C.ar    1  UNL1        0.0000
      5 N          -0.0938   -0.7976   -0.5321 N.ar    1  UNL1        0.0000
      6 C          -0.8901    0.1652    0.0883 C.ar    1  UNL1        0.0000
      7 C           0.0114    1.0604    0.6647 C.ar    1  UNL1        0.0000
      8 C           1.2983    0.6634    0.4085 C.ar    1  UNL1        0.0000
      9 C          -0.4639    2.1899    1.3923 C.ar    1  UNL1        0.0000
     10 N           0.3532    3.0668    1.9569 N.ar    1  UNL1        0.0000
     11 S          -0.7137    4.1512    2.6557 S.2     1  UNL1        0.0000
     12 N          -2.1789    3.4718    2.2184 N.ar    1  UNL1        0.0000
     13 C          -1.9041    2.3578    1.5009 C.ar    1  UNL1        0.0000
     14 C          -2.8547    1.4563    0.9204 C.ar    1  UNL1        0.0000
     15 C          -4.2811    1.6818    1.0660 C.ar    1  UNL1        0.0000
     16 C          -5.2752    0.8408    0.5245 C.ar    1  UNL1        0.0000
     17 C          -4.7028   -0.2217   -0.1601 C.ar    1  UNL1        0.0000
     18 C          -5.4087   -1.2090   -0.7959 C.ar    1  UNL1        0.0000
     19 N          -4.4850   -2.0652   -1.3477 N.ar    1  UNL1        0.0000
     20 C          -3.2019   -1.6316   -1.0686 C.ar    1  UNL1        0.0000
     21 C          -3.3008   -0.4780   -0.3254 C.ar    1  UNL1        0.0000
     22 C          -2.2833    0.3357    0.1985 C.ar    1  UNL1        0.0000
     23 C           4.8453   -0.9067   -0.6052 C.ar    1  UNL1        0.0000
     24 N           5.9008   -0.2370   -0.1743 N.ar    1  UNL1        0.0000
     25 C           7.0759   -0.8440   -0.5664 C.ar    1  UNL1        0.0000
     26 C           6.9290   -1.9920   -1.3063 C.ar    1  UNL1        0.0000
     27 S           5.2677   -2.3270   -1.5210 S.2     1  UNL1        0.0000
     28 H           3.5434    2.2844   -0.0556 H       1  UNL1        0.0000
     29 H           3.5445    0.9120    2.0746 H       1  UNL1        0.0000
     30 H           2.3156   -2.0980   -1.3710 H       1  UNL1        0.0000
     31 H          -0.4384   -1.5940   -1.0450 H       1  UNL1        0.0000
     32 H          -4.6115    2.5565    1.6295 H       1  UNL1        0.0000
     33 H          -6.3342    1.0213    0.6409 H       1  UNL1        0.0000
     34 H          -6.4692   -1.3878   -0.9110 H       1  UNL1        0.0000
     35 H          -4.7124   -2.8941   -1.8816 H       1  UNL1        0.0000
     36 H          -2.3707   -2.2079   -1.4400 H       1  UNL1        0.0000
     37 H           8.0219   -0.4002   -0.2811 H       1  UNL1        0.0000
     38 H           7.6966   -2.6305   -1.7185 H       1  UNL1        0.0000
@<TRIPOS>BOND
     1     1     2    1
     2     2     3    2
     3     3     4    1
     4     4     5   ar
     5     5     6   ar
     6     6     7   ar
     7     7     8   ar
     8     7     9   ar
     9     9    10   ar
    10    10    11   ar
    11    11    12   ar
    12    12    13   ar
    13    13    14   ar
    14    14    15   ar
    15    15    16   ar
    16    16    17   ar
    17    17    18   ar
    18    18    19   ar
    19    19    20   ar
    20    20    21   ar
    21    21    22   ar
    22     2    23    1
    23    23    24   ar
    24    24    25   ar
    25    25    26   ar
    26    26    27   ar
    27     8     1    1
    28    13     9   ar
    29    22    14   ar
    30    27    23   ar
    31     8     4   ar
    32    21    17   ar
    33    22     6   ar
    34     1    28    1
    35     1    29    1
    36     3    30    1
    37     5    31    1
    38    15    32    1
    39    16    33    1
    40    18    34    1
    41    19    35    1
    42    20    36    1
    43    25    37    1
    44    26    38    1
