@<TRIPOS>MOLECULE
*****
 34 39 0 0 0
SMALL
GASTEIGER

@<TRIPOS>ATOM
      1 SI         -0.7482   -1.1117    0.9768 Si      1  UNL1        0.0000
      2 C          -1.8564    0.0930    0.0247 C.2     1  UNL1        0.0000
      3 C          -1.1038    0.9973   -0.6405 C.2     1  UNL1        0.0000
      4 C           0.3490    0.8381   -0.4742 C.ar    1  UNL1        0.0000
      5 N           1.1771    1.6938   -1.1002 N.ar    1  UNL1        0.0000
      6 C           2.4990    1.4861   -0.9012 C.ar    1  UNL1        0.0000
      7 C           3.0098    0.4556   -0.1006 C.ar    1  UNL1        0.0000
      8 C           4.3816    0.2519    0.0970 C.ar    1  UNL1        0.0000
      9 O           5.4211    0.9693   -0.4174 O.2     1  UNL1        0.0000
     10 C           6.5610    0.3939    0.0560 C.ar    1  UNL1        0.0000
     11 C           6.2677   -0.6813    0.8658 C.ar    1  UNL1        0.0000
     12 C           4.8593   -0.7780    0.8960 C.ar    1  UNL1        0.0000
     13 N           4.0533   -1.6567    1.5403 N.ar    1  UNL1        0.0000
     14 C           2.7257   -1.4483    1.3406 C.ar    1  UNL1        0.0000
     15 C           2.1390   -0.4358    0.5514 C.ar    1  UNL1        0.0000
     16 C           0.7670   -0.2228    0.3468 C.ar    1  UNL1        0.0000
     17 C          -3.3088   -0.0512    0.0892 C.ar    1  UNL1        0.0000
     18 N          -3.8393   -1.0690    0.8465 N.ar    1  UNL1        0.0000
     19 C          -5.1907   -1.2658    0.9540 C.ar    1  UNL1        0.0000
     20 C          -6.1984   -0.5215    0.3566 C.ar    1  UNL1        0.0000
     21 C          -5.7151    0.5367   -0.4329 C.ar    1  UNL1        0.0000
     22 N          -6.4850    1.4004   -1.1136 N.ar    1  UNL1        0.0000
     23 S          -5.4536    2.4488   -1.8786 S.2     1  UNL1        0.0000
     24 N          -3.9896    1.8561   -1.3822 N.ar    1  UNL1        0.0000
     25 C          -4.2341    0.7985   -0.5857 C.ar    1  UNL1        0.0000
     26 H          -0.7875   -2.5044    0.4605 H       1  UNL1        0.0000
     27 H          -0.8495   -0.9860    2.4538 H       1  UNL1        0.0000
     28 H          -1.4631    1.8030   -1.2655 H       1  UNL1        0.0000
     29 H           3.1572    2.1841   -1.4124 H       1  UNL1        0.0000
     30 H           7.4836    0.8561   -0.2676 H       1  UNL1        0.0000
     31 H           6.9759   -1.3188    1.3731 H       1  UNL1        0.0000
     32 H           2.1039   -2.1683    1.8698 H       1  UNL1        0.0000
     33 H          -5.4577   -2.1112    1.5886 H       1  UNL1        0.0000
     34 H          -7.2504   -0.7318    0.4837 H       1  UNL1        0.0000
@<TRIPOS>BOND
     1     1     2    1
     2     2     3    2
     3     3     4    1
     4     4     5   ar
     5     5     6   ar
     6     6     7   ar
     7     7     8   ar
     8     8     9   ar
     9     9    10   ar
    10    10    11   ar
    11    11    12   ar
    12    12    13   ar
    13    13    14   ar
    14    14    15   ar
    15    15    16   ar
    16     2    17    1
    17    17    18   ar
    18    18    19   ar
    19    19    20   ar
    20    20    21   ar
    21    21    22   ar
    22    22    23   ar
    23    23    24   ar
    24    24    25   ar
    25    16     1    1
    26    25    17   ar
    27    16     4   ar
    28    25    21   ar
    29    15     7   ar
    30    12     8   ar
    31     1    26    1
    32     1    27    1
    33     3    28    1
    34     6    29    1
    35    10    30    1
    36    11    31    1
    37    14    32    1
    38    19    33    1
    39    20    34    1
