@<TRIPOS>MOLECULE
*****
 44 50 0 0 0
SMALL
GASTEIGER

@<TRIPOS>ATOM
      1 SI         -7.1918    0.5026   -1.3037 Si      1  UNL1        0.0000
      2 C          -7.2797   -0.1400    0.4462 C.2     1  UNL1        0.0000
      3 C          -6.0527   -0.4547    0.9008 C.ar    1  UNL1        0.0000
      4 C          -5.7682   -0.9407    2.2341 C.ar    1  UNL1        0.0000
      5 C          -4.4898   -1.1839    2.5720 C.ar    1  UNL1        0.0000
      6 C          -3.3896   -0.9932    1.6301 C.ar    1  UNL1        0.0000
      7 C          -3.5587   -0.5595    0.3553 C.ar    1  UNL1        0.0000
      8 C          -2.3747   -0.4746   -0.4525 C.ar    1  UNL1        0.0000
      9 C          -2.1889   -0.7526   -1.8001 C.ar    1  UNL1        0.0000
     10 C          -0.8271   -0.5248   -2.1118 C.ar    1  UNL1        0.0000
     11 C          -0.2051   -0.1176   -0.9479 C.ar    1  UNL1        0.0000
     12 O          -1.1441   -0.1052    0.0491 O.2     1  UNL1        0.0000
     13 C           1.1687    0.2294   -0.7160 C.ar    1  UNL1        0.0000
     14 S           1.8340    0.2028    0.8798 S.2     1  UNL1        0.0000
     15 C           3.3997    0.6691    0.3528 C.ar    1  UNL1        0.0000
     16 C           4.5062    0.8226    1.2367 C.ar    1  UNL1        0.0000
     17 S           4.6317    2.1102    2.3768 S.2     1  UNL1        0.0000
     18 C           6.1608    1.5723    2.9628 C.ar    1  UNL1        0.0000
     19 C           6.4965    0.4537    2.2825 C.ar    1  UNL1        0.0000
     20 C           7.6126   -0.4151    2.3346 C.ar    1  UNL1        0.0000
     21 C           7.5101   -1.4698    1.4200 C.ar    1  UNL1        0.0000
     22 S           6.0599   -1.5030    0.4244 S.2     1  UNL1        0.0000
     23 C           5.5997    0.0020    1.3139 C.ar    1  UNL1        0.0000
     24 C           3.4125    0.8682   -1.0005 C.ar    1  UNL1        0.0000
     25 S           4.7304    1.3948   -2.1240 S.2     1  UNL1        0.0000
     26 C           3.5103    1.2690   -3.3768 C.ar    1  UNL1        0.0000
     27 C           2.2357    0.8664   -2.9641 C.ar    1  UNL1        0.0000
     28 C           2.1571    0.6151   -1.5646 C.ar    1  UNL1        0.0000
     29 C          -4.9378   -0.2447   -0.0612 C.ar    1  UNL1        0.0000
     30 C          -5.3352    0.2643   -1.2467 C.2     1  UNL1        0.0000
     31 H          -7.5754    1.9309   -1.4079 H       1  UNL1        0.0000
     32 H          -7.8425   -0.4069   -2.2776 H       1  UNL1        0.0000
     33 H          -8.2137   -0.2069    0.9805 H       1  UNL1        0.0000
     34 H          -6.5781   -1.0875    2.9392 H       1  UNL1        0.0000
     35 H          -4.2385   -1.5413    3.5659 H       1  UNL1        0.0000
     36 H          -2.4013   -1.2457    2.0093 H       1  UNL1        0.0000
     37 H          -2.9542   -1.1040   -2.4779 H       1  UNL1        0.0000
     38 H          -0.3584   -0.6685   -3.0738 H       1  UNL1        0.0000
     39 H           6.6858    2.1008    3.7458 H       1  UNL1        0.0000
     40 H           8.4616   -0.3014    2.9975 H       1  UNL1        0.0000
     41 H           8.2280   -2.2639    1.2655 H       1  UNL1        0.0000
     42 H           3.8146    1.5155   -4.3851 H       1  UNL1        0.0000
     43 H           1.4152    0.7773   -3.6639 H       1  UNL1        0.0000
     44 H          -4.7254    0.5387   -2.0906 H       1  UNL1        0.0000
@<TRIPOS>BOND
     1     1     2    1
     2     2     3    2
     3     3     4   ar
     4     4     5   ar
     5     5     6   ar
     6     6     7   ar
     7     7     8    1
     8     8     9   ar
     9     9    10   ar
    10    10    11   ar
    11    11    12   ar
    12    11    13    1
    13    13    14   ar
    14    14    15   ar
    15    15    16    1
    16    16    17   ar
    17    17    18   ar
    18    18    19   ar
    19    19    20   ar
    20    20    21   ar
    21    21    22   ar
    22    22    23   ar
    23    15    24   ar
    24    24    25   ar
    25    25    26   ar
    26    26    27   ar
    27    27    28   ar
    28     7    29   ar
    29    29    30    2
    30    30     1    1
    31    29     3   ar
    32    12     8   ar
    33    28    13   ar
    34    23    16   ar
    35    28    24   ar
    36    23    19   ar
    37     1    31    1
    38     1    32    1
    39     2    33    1
    40     4    34    1
    41     5    35    1
    42     6    36    1
    43     9    37    1
    44    10    38    1
    45    18    39    1
    46    20    40    1
    47    21    41    1
    48    26    42    1
    49    27    43    1
    50    30    44    1
