@<TRIPOS>MOLECULE
*****
 43 48 0 0 0
SMALL
GASTEIGER

@<TRIPOS>ATOM
      1 SI          6.3091    0.3830    2.5547 Si      1  UNL1        0.0000
      2 C           7.0918    0.9986    0.9702 C.2     1  UNL1        0.0000
      3 C           6.2364    0.8744   -0.0613 C.ar    1  UNL1        0.0000
      4 C           6.5158    1.2650   -1.4274 C.ar    1  UNL1        0.0000
      5 C           5.5605    1.0884   -2.3584 C.ar    1  UNL1        0.0000
      6 C           4.2570    0.5105   -2.0345 C.ar    1  UNL1        0.0000
      7 C           3.9086    0.1232   -0.7824 C.ar    1  UNL1        0.0000
      8 C           2.6124   -0.4554   -0.6006 C.ar    1  UNL1        0.0000
      9 C           2.2851   -1.7737   -0.3436 C.ar    1  UNL1        0.0000
     10 C           0.8817   -1.9776   -0.2036 C.ar    1  UNL1        0.0000
     11 C           0.1562   -0.8105   -0.3535 C.ar    1  UNL1        0.0000
     12 S           1.1983    0.5206   -0.6484 S.2     1  UNL1        0.0000
     13 C          -1.2946   -0.6151   -0.2598 C.ar    1  UNL1        0.0000
     14 C          -2.0025    0.2183   -1.1256 C.ar    1  UNL1        0.0000
     15 C          -3.3883    0.3574   -0.9949 C.ar    1  UNL1        0.0000
     16 C          -4.0622   -0.3385    0.0064 C.ar    1  UNL1        0.0000
     17 N          -3.3932   -1.1708    0.8450 N.ar    1  UNL1        0.0000
     18 C          -2.0474   -1.2820    0.6997 C.ar    1  UNL1        0.0000
     19 C          -5.5065   -0.2796    0.2280 C.ar    1  UNL1        0.0000
     20 C          -6.2405   -1.3338    0.8026 C.ar    1  UNL1        0.0000
     21 N          -7.5914   -1.4060    1.0608 N.ar    1  UNL1        0.0000
     22 C          -8.4050   -0.3556    0.7685 C.ar    1  UNL1        0.0000
     23 C          -7.8227    0.7928    0.2009 C.ar    1  UNL1        0.0000
     24 N          -8.4671    1.9195   -0.1432 N.ar    1  UNL1        0.0000
     25 S          -7.3185    2.9530   -0.7406 S.2     1  UNL1        0.0000
     26 N          -5.9606    2.0139   -0.6063 N.ar    1  UNL1        0.0000
     27 C          -6.3356    0.8335   -0.0761 C.ar    1  UNL1        0.0000
     28 C           4.9135    0.2939    0.2770 C.ar    1  UNL1        0.0000
     29 C           4.7639   -0.0194    1.5808 C.2     1  UNL1        0.0000
     30 H           6.9786   -0.8323    3.0782 H       1  UNL1        0.0000
     31 H           6.0949    1.4707    3.5392 H       1  UNL1        0.0000
     32 H           8.0942    1.3946    0.9494 H       1  UNL1        0.0000
     33 H           7.4792    1.6940   -1.6779 H       1  UNL1        0.0000
     34 H           5.7370    1.3733   -3.3911 H       1  UNL1        0.0000
     35 H           3.5698    0.3980   -2.8696 H       1  UNL1        0.0000
     36 H           3.0272   -2.5595   -0.2625 H       1  UNL1        0.0000
     37 H           0.4316   -2.9440   -0.0094 H       1  UNL1        0.0000
     38 H          -1.4949    0.7617   -1.9189 H       1  UNL1        0.0000
     39 H          -3.9145    1.0009   -1.6927 H       1  UNL1        0.0000
     40 H          -1.5789   -1.9489    1.4195 H       1  UNL1        0.0000
     41 H          -5.7129   -2.2444    1.0965 H       1  UNL1        0.0000
     42 H          -9.4591   -0.4525    0.9911 H       1  UNL1        0.0000
     43 H           3.8937   -0.4394    2.0594 H       1  UNL1        0.0000
@<TRIPOS>BOND
     1     1     2    1
     2     2     3    2
     3     3     4   ar
     4     4     5   ar
     5     5     6   ar
     6     6     7   ar
     7     7     8    1
     8     8     9   ar
     9     9    10   ar
    10    10    11   ar
    11    11    12   ar
    12    11    13    1
    13    13    14   ar
    14    14    15   ar
    15    15    16   ar
    16    16    17   ar
    17    17    18   ar
    18    16    19    1
    19    19    20   ar
    20    20    21   ar
    21    21    22   ar
    22    22    23   ar
    23    23    24   ar
    24    24    25   ar
    25    25    26   ar
    26    26    27   ar
    27     7    28   ar
    28    28    29    2
    29    29     1    1
    30    28     3   ar
    31    12     8   ar
    32    18    13   ar
    33    27    19   ar
    34    27    23   ar
    35     1    30    1
    36     1    31    1
    37     2    32    1
    38     4    33    1
    39     5    34    1
    40     6    35    1
    41     9    36    1
    42    10    37    1
    43    14    38    1
    44    15    39    1
    45    18    40    1
    46    20    41    1
    47    22    42    1
    48    29    43    1
