@<TRIPOS>MOLECULE
*****
 49 55 0 0 0
SMALL
GASTEIGER

@<TRIPOS>ATOM
      1 SI         -6.0221   -1.5704   -2.2839 Si      1  UNL1        0.0000
      2 C          -6.8156   -1.5635   -0.5890 C.2     1  UNL1        0.0000
      3 C          -5.9525   -1.1072    0.3373 C.ar    1  UNL1        0.0000
      4 C          -6.2381   -0.9766    1.7509 C.ar    1  UNL1        0.0000
      5 C          -5.2750   -0.5055    2.5641 C.ar    1  UNL1        0.0000
      6 C          -3.9564   -0.1186    2.0646 C.ar    1  UNL1        0.0000
      7 C          -3.6018   -0.2146    0.7594 C.ar    1  UNL1        0.0000
      8 C          -2.2885    0.2190    0.3937 C.ar    1  UNL1        0.0000
      9 S          -0.9026   -0.7532    0.7886 S.2     1  UNL1        0.0000
     10 C           0.2212    0.3310    0.0440 C.ar    1  UNL1        0.0000
     11 C          -0.4678    1.3883   -0.4739 C.ar    1  UNL1        0.0000
     12 SI         -0.0493    2.9545   -1.4390 Si      1  UNL1        0.0000
     13 C          -1.9144    3.3704   -1.4755 C.2     1  UNL1        0.0000
     14 C          -2.6405    2.4250   -0.8410 C.2     1  UNL1        0.0000
     15 C          -1.8788    1.3388   -0.2942 C.ar    1  UNL1        0.0000
     16 C           1.6282    0.0635    0.0390 C.ar    1  UNL1        0.0000
     17 S           2.8259    1.1991    0.5558 S.2     1  UNL1        0.0000
     18 C           4.1815    0.1262    0.2394 C.ar    1  UNL1        0.0000
     19 C           5.5131    0.5236    0.5038 C.2     1  UNL1        0.0000
     20 SI          6.8098   -0.6277    1.2420 Si      1  UNL1        0.0000
     21 C           8.0195    0.8141    1.1623 C.2     1  UNL1        0.0000
     22 C           7.4305    1.9118    0.6546 C.2     1  UNL1        0.0000
     23 C           6.0300    1.7515    0.2885 C.2     1  UNL1        0.0000
     24 C           3.6400   -1.0221   -0.2416 C.ar    1  UNL1        0.0000
     25 C           4.0181   -2.3021   -0.7335 C.ar    1  UNL1        0.0000
     26 C           2.8348   -2.9873   -1.0788 C.ar    1  UNL1        0.0000
     27 N           1.7067   -2.2093   -0.8404 N.ar    1  UNL1        0.0000
     28 C           2.2660   -1.0625   -0.3484 C.ar    1  UNL1        0.0000
     29 C          -4.6145   -0.7239   -0.1763 C.ar    1  UNL1        0.0000
     30 C          -4.4615   -0.8966   -1.5057 C.2     1  UNL1        0.0000
     31 H          -6.6584   -0.6004   -3.2077 H       1  UNL1        0.0000
     32 H          -5.8432   -2.9418   -2.8187 H       1  UNL1        0.0000
     33 H          -7.8299   -1.8952   -0.4360 H       1  UNL1        0.0000
     34 H          -7.2126   -1.2599    2.1315 H       1  UNL1        0.0000
     35 H          -5.4557   -0.3969    3.6292 H       1  UNL1        0.0000
     36 H          -3.2621    0.2650    2.8086 H       1  UNL1        0.0000
     37 H           0.6929    3.9794   -0.6639 H       1  UNL1        0.0000
     38 H           0.4509    2.7035   -2.8138 H       1  UNL1        0.0000
     39 H          -2.2744    4.2658   -1.9558 H       1  UNL1        0.0000
     40 H          -3.7199    2.4718   -0.7456 H       1  UNL1        0.0000
     41 H           7.2164   -1.7266    0.3285 H       1  UNL1        0.0000
     42 H           6.5277   -1.0220    2.6454 H       1  UNL1        0.0000
     43 H           9.0404    0.7159    1.4953 H       1  UNL1        0.0000
     44 H           7.9360    2.8598    0.5171 H       1  UNL1        0.0000
     45 H           5.4825    2.5871   -0.1308 H       1  UNL1        0.0000
     46 H           5.0172   -2.7019   -0.8445 H       1  UNL1        0.0000
     47 H           2.7085   -3.9825   -1.4859 H       1  UNL1        0.0000
     48 H           0.7209   -2.4045   -0.9751 H       1  UNL1        0.0000
     49 H          -3.5829   -0.6918   -2.0965 H       1  UNL1        0.0000
@<TRIPOS>BOND
     1     1     2    1
     2     2     3    2
     3     3     4   ar
     4     4     5   ar
     5     5     6   ar
     6     6     7   ar
     7     7     8    1
     8     8     9   ar
     9     9    10   ar
    10    10    11   ar
    11    11    12    1
    12    12    13    1
    13    13    14    2
    14    14    15    1
    15    10    16    1
    16    16    17   ar
    17    17    18   ar
    18    18    19    1
    19    19    20    1
    20    20    21    1
    21    21    22    2
    22    22    23    1
    23    18    24   ar
    24    24    25   ar
    25    25    26   ar
    26    26    27   ar
    27    27    28   ar
    28     7    29   ar
    29    29    30    2
    30    30     1    1
    31    29     3   ar
    32    15     8   ar
    33    28    16   ar
    34    15    11   ar
    35    23    19    2
    36    28    24   ar
    37     1    31    1
    38     1    32    1
    39     2    33    1
    40     4    34    1
    41     5    35    1
    42     6    36    1
    43    12    37    1
    44    12    38    1
    45    13    39    1
    46    14    40    1
    47    20    41    1
    48    20    42    1
    49    21    43    1
    50    22    44    1
    51    23    45    1
    52    25    46    1
    53    26    47    1
    54    27    48    1
    55    30    49    1
