@<TRIPOS>MOLECULE
*****
 42 47 0 0 0
SMALL
GASTEIGER

@<TRIPOS>ATOM
      1 SI         -5.0669   -1.1305    2.6320 Si      1  UNL1        0.0000
      2 C          -6.1640   -1.2123    1.1171 C.2     1  UNL1        0.0000
      3 C          -5.4705   -0.8869    0.0106 C.ar    1  UNL1        0.0000
      4 C          -6.0136   -0.8428   -1.3311 C.ar    1  UNL1        0.0000
      5 C          -5.2023   -0.4924   -2.3460 C.ar    1  UNL1        0.0000
      6 C          -3.7943   -0.1590   -2.1355 C.ar    1  UNL1        0.0000
      7 C          -3.2033   -0.1824   -0.9156 C.ar    1  UNL1        0.0000
      8 C          -1.8222    0.1672   -0.8504 C.ar    1  UNL1        0.0000
      9 S          -0.5975   -1.0455   -0.6967 S.2     1  UNL1        0.0000
     10 C           0.6937    0.0997   -0.6714 C.ar    1  UNL1        0.0000
     11 C           2.0667   -0.2967   -0.5426 C.ar    1  UNL1        0.0000
     12 C           2.7261   -1.2584   -1.2821 C.ar    1  UNL1        0.0000
     13 C           4.0859   -1.4181   -0.8808 C.ar    1  UNL1        0.0000
     14 C           4.4334   -0.5848    0.1640 C.ar    1  UNL1        0.0000
     15 S           3.0971    0.3752    0.6481 S.2     1  UNL1        0.0000
     16 C           5.7167   -0.4890    0.8068 C.ar    1  UNL1        0.0000
     17 C           6.8846   -1.1931    0.5725 C.ar    1  UNL1        0.0000
     18 C           7.8701   -0.7226    1.4757 C.ar    1  UNL1        0.0000
     19 C           7.2853    0.2583    2.2419 C.ar    1  UNL1        0.0000
     20 N           5.9855    0.3924    1.8305 N.ar    1  UNL1        0.0000
     21 C           0.2030    1.3728   -0.8028 C.ar    1  UNL1        0.0000
     22 S           1.0079    2.9940   -0.8917 S.2     1  UNL1        0.0000
     23 C          -0.6204    3.6374   -1.0282 C.ar    1  UNL1        0.0000
     24 C          -1.6589    2.7014   -1.0175 C.ar    1  UNL1        0.0000
     25 C          -1.1904    1.3677   -0.8936 C.ar    1  UNL1        0.0000
     26 C          -4.0426   -0.5510    0.2325 C.ar    1  UNL1        0.0000
     27 C          -3.6525   -0.6150    1.5223 C.2     1  UNL1        0.0000
     28 H          -5.4776   -0.0531    3.5645 H       1  UNL1        0.0000
     29 H          -4.8539   -2.4633    3.2458 H       1  UNL1        0.0000
     30 H          -7.2042   -1.4870    1.1850 H       1  UNL1        0.0000
     31 H          -7.0557   -1.0903   -1.4977 H       1  UNL1        0.0000
     32 H          -5.5783   -0.4510   -3.3637 H       1  UNL1        0.0000
     33 H          -3.2324    0.1066   -3.0279 H       1  UNL1        0.0000
     34 H           2.2618   -1.8218   -2.0829 H       1  UNL1        0.0000
     35 H           4.7713   -2.1171   -1.3439 H       1  UNL1        0.0000
     36 H           7.0209   -1.9679   -0.1705 H       1  UNL1        0.0000
     37 H           8.8940   -1.0639    1.5560 H       1  UNL1        0.0000
     38 H           7.6789    0.8714    3.0414 H       1  UNL1        0.0000
     39 H           5.3111    1.0415    2.2138 H       1  UNL1        0.0000
     40 H          -0.7191    4.7111   -1.1139 H       1  UNL1        0.0000
     41 H          -2.7011    2.9872   -1.0979 H       1  UNL1        0.0000
     42 H          -2.6725   -0.4118    1.9238 H       1  UNL1        0.0000
@<TRIPOS>BOND
     1     1     2    1
     2     2     3    2
     3     3     4   ar
     4     4     5   ar
     5     5     6   ar
     6     6     7   ar
     7     7     8    1
     8     8     9   ar
     9     9    10   ar
    10    10    11    1
    11    11    12   ar
    12    12    13   ar
    13    13    14   ar
    14    14    15   ar
    15    14    16    1
    16    16    17   ar
    17    17    18   ar
    18    18    19   ar
    19    19    20   ar
    20    10    21   ar
    21    21    22   ar
    22    22    23   ar
    23    23    24   ar
    24    24    25   ar
    25     7    26   ar
    26    26    27    2
    27    27     1    1
    28    26     3   ar
    29    25     8   ar
    30    15    11   ar
    31    20    16   ar
    32    25    21   ar
    33     1    28    1
    34     1    29    1
    35     2    30    1
    36     4    31    1
    37     5    32    1
    38     6    33    1
    39    12    34    1
    40    13    35    1
    41    17    36    1
    42    18    37    1
    43    19    38    1
    44    20    39    1
    45    23    40    1
    46    24    41    1
    47    27    42    1
