@<TRIPOS>MOLECULE
*****
 34 39 0 0 0
SMALL
GASTEIGER

@<TRIPOS>ATOM
      1 SI          4.0575    1.3418    0.5383 Si      1  UNL1        0.0000
      2 C           5.0756   -0.2512    0.3508 C.2     1  UNL1        0.0000
      3 C           4.2799   -1.3130    0.1115 C.2     1  UNL1        0.0000
      4 C           2.8763   -0.9743    0.0593 C.2     1  UNL1        0.0000
      5 SI          1.4315   -2.0690   -0.2355 Si      1  UNL1        0.0000
      6 C           0.2565   -0.5393   -0.0704 C.ar    1  UNL1        0.0000
      7 C           1.1280    0.5910    0.1856 C.ar    1  UNL1        0.0000
      8 C           2.5552    0.3263    0.2518 C.2     1  UNL1        0.0000
      9 C           0.4111    1.7703    0.3268 C.ar    1  UNL1        0.0000
     10 C           0.8690    3.0390    0.5737 C.ar    1  UNL1        0.0000
     11 O          -0.1806    3.9101    0.6379 O.2     1  UNL1        0.0000
     12 C          -1.3210    3.1917    0.4300 C.ar    1  UNL1        0.0000
     13 C          -1.0159    1.8667    0.2326 C.ar    1  UNL1        0.0000
     14 C          -1.9171    0.7991   -0.0150 C.ar    1  UNL1        0.0000
     15 C          -3.3489    1.0050   -0.0913 C.ar    1  UNL1        0.0000
     16 C          -4.2701   -0.0211   -0.3335 C.ar    1  UNL1        0.0000
     17 C          -3.6401   -1.2493   -0.4895 C.ar    1  UNL1        0.0000
     18 C          -4.3821   -2.3793   -0.7350 C.ar    1  UNL1        0.0000
     19 S          -3.3828   -3.7574   -0.8874 S.2     1  UNL1        0.0000
     20 C          -1.9568   -2.8315   -0.6231 C.ar    1  UNL1        0.0000
     21 C          -2.2077   -1.4931   -0.4196 C.ar    1  UNL1        0.0000
     22 C          -1.2117   -0.4761   -0.1732 C.ar    1  UNL1        0.0000
     23 H           4.1519    1.8943    1.9120 H       1  UNL1        0.0000
     24 H           4.3432    2.3065   -0.5521 H       1  UNL1        0.0000
     25 H           6.1505   -0.2415    0.4359 H       1  UNL1        0.0000
     26 H           4.6490   -2.3216   -0.0285 H       1  UNL1        0.0000
     27 H           1.3816   -2.6411   -1.6054 H       1  UNL1        0.0000
     28 H           1.1917   -3.0521    0.8520 H       1  UNL1        0.0000
     29 H           1.8347    3.4962    0.7245 H       1  UNL1        0.0000
     30 H          -2.2331    3.7703    0.4560 H       1  UNL1        0.0000
     31 H          -3.7519    2.0078    0.0448 H       1  UNL1        0.0000
     32 H          -5.3371    0.1505   -0.3873 H       1  UNL1        0.0000
     33 H          -5.4546   -2.4775   -0.8343 H       1  UNL1        0.0000
     34 H          -1.0317   -3.3781   -0.6425 H       1  UNL1        0.0000
@<TRIPOS>BOND
     1     1     2    1
     2     2     3    2
     3     3     4    1
     4     4     5    1
     5     5     6    1
     6     6     7   ar
     7     7     8    1
     8     7     9   ar
     9     9    10   ar
    10    10    11   ar
    11    11    12   ar
    12    12    13   ar
    13    13    14   ar
    14    14    15   ar
    15    15    16   ar
    16    16    17   ar
    17    17    18   ar
    18    18    19   ar
    19    19    20   ar
    20    20    21   ar
    21    21    22   ar
    22     8     1    1
    23    13     9   ar
    24    22    14   ar
    25     8     4    2
    26    21    17   ar
    27    22     6   ar
    28     1    23    1
    29     1    24    1
    30     2    25    1
    31     3    26    1
    32     5    27    1
    33     5    28    1
    34    10    29    1
    35    12    30    1
    36    15    31    1
    37    16    32    1
    38    18    33    1
    39    20    34    1
