@<TRIPOS>MOLECULE
*****
 45 51 0 0 0
SMALL
GASTEIGER

@<TRIPOS>ATOM
      1 SI         -2.9086   -1.9760   -2.0287 Si      1  UNL1        0.0000
      2 C          -1.1915   -2.4335   -2.7364 C.2     1  UNL1        0.0000
      3 C          -0.1953   -1.8798   -2.0108 C.2     1  UNL1        0.0000
      4 C          -0.6242   -1.0906   -0.8921 C.ar    1  UNL1        0.0000
      5 C          -2.0275   -0.9903   -0.6869 C.ar    1  UNL1        0.0000
      6 C          -2.4043   -0.2396    0.3859 C.ar    1  UNL1        0.0000
      7 S          -0.9952    0.3512    1.1851 S.2     1  UNL1        0.0000
      8 C           0.0898   -0.3965    0.0565 C.ar    1  UNL1        0.0000
      9 C           1.5243   -0.2190    0.2324 C.ar    1  UNL1        0.0000
     10 C           2.2143   -0.6670    1.3736 C.ar    1  UNL1        0.0000
     11 C           3.6069   -0.4976    1.5445 C.ar    1  UNL1        0.0000
     12 C           4.4570    0.1408    0.6028 C.ar    1  UNL1        0.0000
     13 C           5.8910    0.3021    0.8225 C.ar    1  UNL1        0.0000
     14 N           6.4757    1.4341    0.4262 N.ar    1  UNL1        0.0000
     15 C           7.7772    1.5125    0.6864 C.ar    1  UNL1        0.0000
     16 N           8.5071    0.5924    1.3109 N.ar    1  UNL1        0.0000
     17 C           7.8146   -0.4803    1.6814 C.ar    1  UNL1        0.0000
     18 N           6.5146   -0.6842    1.4793 N.ar    1  UNL1        0.0000
     19 C           3.8086    0.5989   -0.5833 C.ar    1  UNL1        0.0000
     20 N           4.3813    1.1899   -1.6484 N.ar    1  UNL1        0.0000
     21 S           3.1825    1.5338   -2.7320 S.2     1  UNL1        0.0000
     22 N           1.8687    0.9192   -1.9408 N.ar    1  UNL1        0.0000
     23 C           2.3075    0.4191   -0.7710 C.ar    1  UNL1        0.0000
     24 C          -3.7165    0.0923    0.8977 C.ar    1  UNL1        0.0000
     25 C          -4.2970   -0.5202    2.0330 C.ar    1  UNL1        0.0000
     26 C          -5.6084   -0.2106    2.5187 C.ar    1  UNL1        0.0000
     27 C          -6.4688    0.7364    1.9206 C.ar    1  UNL1        0.0000
     28 C          -5.8886    1.3374    0.8026 C.ar    1  UNL1        0.0000
     29 C          -6.5359    2.2930    0.0595 C.ar    1  UNL1        0.0000
     30 S          -5.5547    2.8396   -1.2419 S.2     1  UNL1        0.0000
     31 C          -4.2587    1.7968   -0.8038 C.ar    1  UNL1        0.0000
     32 C          -4.5682    1.0373    0.3013 C.ar    1  UNL1        0.0000
     33 H          -3.6692   -1.1472   -2.9965 H       1  UNL1        0.0000
     34 H          -3.6074   -3.1881   -1.5320 H       1  UNL1        0.0000
     35 H          -1.1010   -3.0528   -3.6140 H       1  UNL1        0.0000
     36 H           0.8528   -2.0104   -2.2545 H       1  UNL1        0.0000
     37 H           1.6583   -1.1722    2.1647 H       1  UNL1        0.0000
     38 H           4.0508   -0.8795    2.4672 H       1  UNL1        0.0000
     39 H           8.2890    2.4119    0.3616 H       1  UNL1        0.0000
     40 H           8.3600   -1.2624    2.1987 H       1  UNL1        0.0000
     41 H          -3.7211   -1.2738    2.5715 H       1  UNL1        0.0000
     42 H          -5.9616   -0.7409    3.4042 H       1  UNL1        0.0000
     43 H          -7.4563    0.9547    2.3053 H       1  UNL1        0.0000
     44 H          -7.5244    2.7084    0.1993 H       1  UNL1        0.0000
     45 H          -3.3473    1.8111   -1.3864 H       1  UNL1        0.0000
@<TRIPOS>BOND
     1     1     2    1
     2     2     3    2
     3     3     4    1
     4     4     5   ar
     5     5     6   ar
     6     6     7   ar
     7     7     8   ar
     8     8     9    1
     9     9    10   ar
    10    10    11   ar
    11    11    12   ar
    12    12    13    1
    13    13    14   ar
    14    14    15   ar
    15    15    16   ar
    16    16    17   ar
    17    17    18   ar
    18    12    19   ar
    19    19    20   ar
    20    20    21   ar
    21    21    22   ar
    22    22    23   ar
    23     6    24    1
    24    24    25   ar
    25    25    26   ar
    26    26    27   ar
    27    27    28   ar
    28    28    29   ar
    29    29    30   ar
    30    30    31   ar
    31    31    32   ar
    32     5     1    1
    33    23     9   ar
    34    32    24   ar
    35     8     4   ar
    36    18    13   ar
    37    23    19   ar
    38    32    28   ar
    39     1    33    1
    40     1    34    1
    41     2    35    1
    42     3    36    1
    43    10    37    1
    44    11    38    1
    45    15    39    1
    46    17    40    1
    47    25    41    1
    48    26    42    1
    49    27    43    1
    50    29    44    1
    51    31    45    1
