@<TRIPOS>MOLECULE
*****
 43 48 0 0 0
SMALL
GASTEIGER

@<TRIPOS>ATOM
      1 SI         -4.4436   -1.6034   -2.3081 Si      1  UNL1        0.0000
      2 C          -2.8213   -2.1077   -3.1751 C.2     1  UNL1        0.0000
      3 C          -1.7448   -1.6390   -2.5086 C.2     1  UNL1        0.0000
      4 C          -2.0432   -0.8879   -1.3228 C.ar    1  UNL1        0.0000
      5 C          -3.4201   -0.7279   -0.9871 C.ar    1  UNL1        0.0000
      6 C          -3.6635    0.0040    0.1391 C.ar    1  UNL1        0.0000
      7 S          -2.1453    0.5249    0.7962 S.2     1  UNL1        0.0000
      8 C          -1.2108   -0.2590   -0.4289 C.ar    1  UNL1        0.0000
      9 C           0.2496   -0.1907   -0.3772 C.ar    1  UNL1        0.0000
     10 C           0.9173    1.0372   -0.4644 C.ar    1  UNL1        0.0000
     11 C           2.3144    1.0900   -0.4244 C.ar    1  UNL1        0.0000
     12 C           3.0684   -0.0839   -0.2979 C.ar    1  UNL1        0.0000
     13 C           2.4011   -1.3118   -0.2168 C.ar    1  UNL1        0.0000
     14 C           1.0040   -1.3645   -0.2561 C.ar    1  UNL1        0.0000
     15 C           4.5187   -0.0241   -0.2448 C.ar    1  UNL1        0.0000
     16 S           5.5419   -0.7635   -1.4321 S.2     1  UNL1        0.0000
     17 C           7.0067   -0.2103   -0.6703 C.ar    1  UNL1        0.0000
     18 C           6.6551    0.4863    0.4296 C.ar    1  UNL1        0.0000
     19 C           7.2200    1.2014    1.5137 C.ar    1  UNL1        0.0000
     20 C           6.1477    1.6631    2.3081 C.ar    1  UNL1        0.0000
     21 N           4.9153    1.2765    1.7841 N.ar    1  UNL1        0.0000
     22 C           5.3027    0.5894    0.6688 C.ar    1  UNL1        0.0000
     23 C          -4.9055    0.3547    0.7701 C.ar    1  UNL1        0.0000
     24 C          -6.1369   -0.2751    0.7584 C.ar    1  UNL1        0.0000
     25 C          -7.0327    0.4953    1.5420 C.ar    1  UNL1        0.0000
     26 C          -6.3295    1.5751    2.0215 C.ar    1  UNL1        0.0000
     27 N          -5.0446    1.4765    1.5579 N.ar    1  UNL1        0.0000
     28 H          -5.1734   -2.7995   -1.8165 H       1  UNL1        0.0000
     29 H          -5.2352   -0.6941   -3.1738 H       1  UNL1        0.0000
     30 H          -2.8321   -2.6872   -4.0840 H       1  UNL1        0.0000
     31 H          -0.7266   -1.8060   -2.8422 H       1  UNL1        0.0000
     32 H           0.3550    1.9615   -0.5779 H       1  UNL1        0.0000
     33 H           2.8102    2.0549   -0.5097 H       1  UNL1        0.0000
     34 H           2.9634   -2.2378   -0.1145 H       1  UNL1        0.0000
     35 H           0.5076   -2.3302   -0.1837 H       1  UNL1        0.0000
     36 H           7.9794   -0.4399   -1.0798 H       1  UNL1        0.0000
     37 H           8.2684    1.3715    1.7194 H       1  UNL1        0.0000
     38 H           6.1682    2.2420    3.2226 H       1  UNL1        0.0000
     39 H           3.9718    1.4349    2.1177 H       1  UNL1        0.0000
     40 H          -6.3779   -1.2024    0.2573 H       1  UNL1        0.0000
     41 H          -8.0748    0.2791    1.7390 H       1  UNL1        0.0000
     42 H          -6.6281    2.3991    2.6555 H       1  UNL1        0.0000
     43 H          -4.2967    2.1282    1.7550 H       1  UNL1        0.0000
@<TRIPOS>BOND
     1     1     2    1
     2     2     3    2
     3     3     4    1
     4     4     5   ar
     5     5     6   ar
     6     6     7   ar
     7     7     8   ar
     8     8     9    1
     9     9    10   ar
    10    10    11   ar
    11    11    12   ar
    12    12    13   ar
    13    13    14   ar
    14    12    15    1
    15    15    16   ar
    16    16    17   ar
    17    17    18   ar
    18    18    19   ar
    19    19    20   ar
    20    20    21   ar
    21    21    22   ar
    22     6    23    1
    23    23    24   ar
    24    24    25   ar
    25    25    26   ar
    26    26    27   ar
    27     5     1    1
    28    14     9   ar
    29    22    15   ar
    30    27    23   ar
    31     8     4   ar
    32    22    18   ar
    33     1    28    1
    34     1    29    1
    35     2    30    1
    36     3    31    1
    37    10    32    1
    38    11    33    1
    39    13    34    1
    40    14    35    1
    41    17    36    1
    42    19    37    1
    43    20    38    1
    44    21    39    1
    45    24    40    1
    46    25    41    1
    47    26    42    1
    48    27    43    1
