@<TRIPOS>MOLECULE
*****
 39 44 0 0 0
SMALL
GASTEIGER

@<TRIPOS>ATOM
      1 SI         -2.6969   -2.8828   -1.2601 Si      1  UNL1        0.0000
      2 C          -0.9352   -3.4055   -1.7892 C.2     1  UNL1        0.0000
      3 C          -0.0034   -2.5500   -1.3153 C.2     1  UNL1        0.0000
      4 C          -0.5188   -1.4620   -0.5348 C.ar    1  UNL1        0.0000
      5 C          -1.9306   -1.4144   -0.3619 C.ar    1  UNL1        0.0000
      6 C          -2.3903   -0.3539    0.3606 C.ar    1  UNL1        0.0000
      7 S          -1.0478    0.6080    0.8635 S.2     1  UNL1        0.0000
      8 C           0.1175   -0.4118    0.0847 C.ar    1  UNL1        0.0000
      9 C           1.5378   -0.0848    0.1827 C.ar    1  UNL1        0.0000
     10 C           2.4531   -0.9999    0.7044 C.ar    1  UNL1        0.0000
     11 C           3.8061   -0.6649    0.7767 C.ar    1  UNL1        0.0000
     12 C           4.2229    0.5845    0.3216 C.ar    1  UNL1        0.0000
     13 N           3.3530    1.4910   -0.1930 N.ar    1  UNL1        0.0000
     14 C           2.0440    1.1381   -0.2480 C.ar    1  UNL1        0.0000
     15 C           5.6483    0.9643    0.3852 C.ar    1  UNL1        0.0000
     16 N           6.6130    0.1820    0.8454 N.ar    1  UNL1        0.0000
     17 C           7.8304    0.8290    0.7715 C.ar    1  UNL1        0.0000
     18 C           7.7959    2.1035    0.2547 C.ar    1  UNL1        0.0000
     19 S           6.1868    2.5154   -0.1559 S.2     1  UNL1        0.0000
     20 C          -3.7307   -0.0098    0.7183 C.ar    1  UNL1        0.0000
     21 S          -4.7058   -0.9885    1.7522 S.2     1  UNL1        0.0000
     22 C          -6.0507    0.0848    1.6641 C.ar    1  UNL1        0.0000
     23 C          -5.7083    1.1143    0.8582 C.ar    1  UNL1        0.0000
     24 C          -6.3976    2.2689    0.4170 C.ar    1  UNL1        0.0000
     25 C          -5.6201    3.0601   -0.4364 C.ar    1  UNL1        0.0000
     26 S          -3.9966    2.4764   -0.7796 S.2     1  UNL1        0.0000
     27 C          -4.4253    1.0980    0.3094 C.ar    1  UNL1        0.0000
     28 H          -3.5122   -2.5153   -2.4442 H       1  UNL1        0.0000
     29 H          -3.2945   -3.9039   -0.3644 H       1  UNL1        0.0000
     30 H          -0.7770   -4.2816   -2.3974 H       1  UNL1        0.0000
     31 H           1.0560   -2.6658   -1.5152 H       1  UNL1        0.0000
     32 H           2.1225   -1.9705    1.0662 H       1  UNL1        0.0000
     33 H           4.5233   -1.3708    1.1859 H       1  UNL1        0.0000
     34 H           1.3932    1.8981   -0.6743 H       1  UNL1        0.0000
     35 H           8.7229    0.3186    1.1125 H       1  UNL1        0.0000
     36 H           8.6137    2.7926    0.1030 H       1  UNL1        0.0000
     37 H          -6.9718   -0.1143    2.1932 H       1  UNL1        0.0000
     38 H          -7.4113    2.5340    0.6916 H       1  UNL1        0.0000
     39 H          -5.9155    3.9889   -0.9053 H       1  UNL1        0.0000
@<TRIPOS>BOND
     1     1     2    1
     2     2     3    2
     3     3     4    1
     4     4     5   ar
     5     5     6   ar
     6     6     7   ar
     7     7     8   ar
     8     8     9    1
     9     9    10   ar
    10    10    11   ar
    11    11    12   ar
    12    12    13   ar
    13    13    14   ar
    14    12    15    1
    15    15    16   ar
    16    16    17   ar
    17    17    18   ar
    18    18    19   ar
    19     6    20    1
    20    20    21   ar
    21    21    22   ar
    22    22    23   ar
    23    23    24   ar
    24    24    25   ar
    25    25    26   ar
    26    26    27   ar
    27     5     1    1
    28    14     9   ar
    29    19    15   ar
    30    27    20   ar
    31     8     4   ar
    32    27    23   ar
    33     1    28    1
    34     1    29    1
    35     2    30    1
    36     3    31    1
    37    10    32    1
    38    11    33    1
    39    14    34    1
    40    17    35    1
    41    18    36    1
    42    22    37    1
    43    24    38    1
    44    25    39    1
