@<TRIPOS>MOLECULE
*****
 40 45 0 0 0
SMALL
GASTEIGER

@<TRIPOS>ATOM
      1 SI         -3.0163   -3.0430    0.5364 Si      1  UNL1        0.0000
      2 C          -1.2618   -3.7574    0.3411 C.2     1  UNL1        0.0000
      3 C          -0.3512   -2.7809    0.1400 C.2     1  UNL1        0.0000
      4 C          -0.8800   -1.4457    0.1152 C.ar    1  UNL1        0.0000
      5 C          -2.2895   -1.3157    0.2997 C.ar    1  UNL1        0.0000
      6 C          -2.7723   -0.0406    0.2315 C.ar    1  UNL1        0.0000
      7 S          -1.4514    1.0344   -0.0702 S.2     1  UNL1        0.0000
      8 C          -0.2672   -0.2295   -0.0801 C.ar    1  UNL1        0.0000
      9 C           1.1244    0.0830   -0.2801 C.ar    1  UNL1        0.0000
     10 C           1.6710    0.8567   -1.2842 C.ar    1  UNL1        0.0000
     11 C           3.0877    0.9749   -1.1712 C.ar    1  UNL1        0.0000
     12 C           3.5951    0.2902   -0.0822 C.ar    1  UNL1        0.0000
     13 S           2.3336   -0.4718    0.7969 S.2     1  UNL1        0.0000
     14 C           4.9877    0.1911    0.3699 C.ar    1  UNL1        0.0000
     15 C           5.8397    1.2998    0.3136 C.ar    1  UNL1        0.0000
     16 C           7.1641    1.1884    0.7355 C.ar    1  UNL1        0.0000
     17 C           7.6052   -0.0384    1.2007 C.ar    1  UNL1        0.0000
     18 N           6.8244   -1.1360    1.2680 N.ar    1  UNL1        0.0000
     19 C           5.5397   -0.9950    0.8534 C.ar    1  UNL1        0.0000
     20 C          -4.1119    0.4576    0.3646 C.ar    1  UNL1        0.0000
     21 S          -5.1828   -0.0577    1.6450 S.2     1  UNL1        0.0000
     22 C          -6.4870    0.9589    1.1286 C.ar    1  UNL1        0.0000
     23 C          -6.0692    1.6313    0.0421 C.ar    1  UNL1        0.0000
     24 O          -6.7917    2.5352   -0.6731 O.2     1  UNL1        0.0000
     25 C          -5.8574    2.8669   -1.6372 C.ar    1  UNL1        0.0000
     26 C          -4.6357    2.1940   -1.5079 C.ar    1  UNL1        0.0000
     27 C          -4.7874    1.3696   -0.3761 C.ar    1  UNL1        0.0000
     28 H          -3.8912   -3.4843   -0.5782 H       1  UNL1        0.0000
     29 H          -3.5389   -3.3056    1.9000 H       1  UNL1        0.0000
     30 H          -1.0843   -4.8196    0.3917 H       1  UNL1        0.0000
     31 H           0.7031   -2.9885   -0.0030 H       1  UNL1        0.0000
     32 H           1.0852    1.3156   -2.0718 H       1  UNL1        0.0000
     33 H           3.7032    1.5329   -1.8668 H       1  UNL1        0.0000
     34 H           5.4781    2.2603   -0.0447 H       1  UNL1        0.0000
     35 H           7.8338    2.0406    0.7041 H       1  UNL1        0.0000
     36 H           8.6276   -0.1747    1.5414 H       1  UNL1        0.0000
     37 H           4.9547   -1.9089    0.9162 H       1  UNL1        0.0000
     38 H          -7.4445    1.0092    1.6258 H       1  UNL1        0.0000
     39 H          -6.2087    3.5986   -2.3532 H       1  UNL1        0.0000
     40 H          -3.7778    2.3042   -2.1555 H       1  UNL1        0.0000
@<TRIPOS>BOND
     1     1     2    1
     2     2     3    2
     3     3     4    1
     4     4     5   ar
     5     5     6   ar
     6     6     7   ar
     7     7     8   ar
     8     8     9    1
     9     9    10   ar
    10    10    11   ar
    11    11    12   ar
    12    12    13   ar
    13    12    14    1
    14    14    15   ar
    15    15    16   ar
    16    16    17   ar
    17    17    18   ar
    18    18    19   ar
    19     6    20    1
    20    20    21   ar
    21    21    22   ar
    22    22    23   ar
    23    23    24   ar
    24    24    25   ar
    25    25    26   ar
    26    26    27   ar
    27     5     1    1
    28    13     9   ar
    29    19    14   ar
    30    27    20   ar
    31     8     4   ar
    32    27    23   ar
    33     1    28    1
    34     1    29    1
    35     2    30    1
    36     3    31    1
    37    10    32    1
    38    11    33    1
    39    15    34    1
    40    16    35    1
    41    17    36    1
    42    19    37    1
    43    22    38    1
    44    25    39    1
    45    26    40    1
