@<TRIPOS>MOLECULE
*****
 47 53 0 0 0
SMALL
GASTEIGER

@<TRIPOS>ATOM
      1 SI         -0.4146    3.2423   -1.0644 Si      1  UNL1        0.0000
      2 C          -2.3075    3.3837   -1.3565 C.2     1  UNL1        0.0000
      3 C          -2.9222    2.1942   -1.1806 C.2     1  UNL1        0.0000
      4 C          -2.0538    1.1118   -0.8232 C.ar    1  UNL1        0.0000
      5 C          -0.6694    1.4076   -0.6966 C.ar    1  UNL1        0.0000
      6 C           0.1358    0.3553   -0.3535 C.ar    1  UNL1        0.0000
      7 S          -0.8651   -1.0523   -0.1840 S.2     1  UNL1        0.0000
      8 C          -2.3227   -0.2090   -0.5679 C.ar    1  UNL1        0.0000
      9 C          -3.5947   -0.9372   -0.5796 C.ar    1  UNL1        0.0000
     10 C          -3.9039   -1.6994   -1.7185 C.ar    1  UNL1        0.0000
     11 C          -5.1043   -2.3965   -1.8002 C.ar    1  UNL1        0.0000
     12 C          -6.0116   -2.3369   -0.7455 C.ar    1  UNL1        0.0000
     13 C          -5.7341   -1.5826    0.4051 C.ar    1  UNL1        0.0000
     14 C          -6.6637   -1.5348    1.4576 C.ar    1  UNL1        0.0000
     15 C          -6.4077   -0.7933    2.6101 C.ar    1  UNL1        0.0000
     16 C          -5.2166   -0.0899    2.7269 C.ar    1  UNL1        0.0000
     17 C          -4.2822   -0.1272    1.6898 C.ar    1  UNL1        0.0000
     18 C          -4.5134   -0.8680    0.5053 C.ar    1  UNL1        0.0000
     19 C           1.5683    0.3500   -0.1534 C.ar    1  UNL1        0.0000
     20 N           2.2846    1.4481   -0.2967 N.ar    1  UNL1        0.0000
     21 C           3.6177    1.1767   -0.0510 C.ar    1  UNL1        0.0000
     22 C           3.9270   -0.1291    0.2799 C.ar    1  UNL1        0.0000
     23 S           2.4746   -1.0449    0.2814 S.2     1  UNL1        0.0000
     24 C           5.2228   -0.6809    0.5703 C.ar    1  UNL1        0.0000
     25 S           5.4643   -2.1383    1.5054 S.2     1  UNL1        0.0000
     26 C           7.1930   -2.0723    1.3998 C.ar    1  UNL1        0.0000
     27 C           7.5185   -0.9815    0.6802 C.ar    1  UNL1        0.0000
     28 N           8.7770   -0.5645    0.3588 N.ar    1  UNL1        0.0000
     29 C           8.5001    0.5811   -0.3829 C.ar    1  UNL1        0.0000
     30 C           7.1113    0.8124   -0.4826 C.ar    1  UNL1        0.0000
     31 C           6.4552   -0.2285    0.2320 C.ar    1  UNL1        0.0000
     32 H           0.3017    3.5344   -2.3320 H       1  UNL1        0.0000
     33 H          -0.0361    4.0696    0.1093 H       1  UNL1        0.0000
     34 H          -2.7547    4.3272   -1.6240 H       1  UNL1        0.0000
     35 H          -3.9918    2.0566   -1.2962 H       1  UNL1        0.0000
     36 H          -3.2038   -1.7474   -2.5503 H       1  UNL1        0.0000
     37 H          -5.3338   -2.9846   -2.6847 H       1  UNL1        0.0000
     38 H          -6.9456   -2.8891   -0.8287 H       1  UNL1        0.0000
     39 H          -7.6022   -2.0808    1.3871 H       1  UNL1        0.0000
     40 H          -7.1375   -0.7684    3.4149 H       1  UNL1        0.0000
     41 H          -5.0082    0.4879    3.6234 H       1  UNL1        0.0000
     42 H          -3.3578    0.4324    1.8186 H       1  UNL1        0.0000
     43 H           4.3305    1.9889   -0.1218 H       1  UNL1        0.0000
     44 H           7.8324   -2.8144    1.8564 H       1  UNL1        0.0000
     45 H           9.6600   -0.9955    0.6044 H       1  UNL1        0.0000
     46 H           9.3241    1.1509   -0.7939 H       1  UNL1        0.0000
     47 H           6.6600    1.6360   -1.0194 H       1  UNL1        0.0000
@<TRIPOS>BOND
     1     1     2    1
     2     2     3    2
     3     3     4    1
     4     4     5   ar
     5     5     6   ar
     6     6     7   ar
     7     7     8   ar
     8     8     9    1
     9     9    10   ar
    10    10    11   ar
    11    11    12   ar
    12    12    13   ar
    13    13    14   ar
    14    14    15   ar
    15    15    16   ar
    16    16    17   ar
    17    17    18   ar
    18     6    19    1
    19    19    20   ar
    20    20    21   ar
    21    21    22   ar
    22    22    23   ar
    23    22    24    1
    24    24    25   ar
    25    25    26   ar
    26    26    27   ar
    27    27    28   ar
    28    28    29   ar
    29    29    30   ar
    30    30    31   ar
    31     5     1    1
    32    18     9   ar
    33    23    19   ar
    34    31    24   ar
    35     8     4   ar
    36    18    13   ar
    37    31    27   ar
    38     1    32    1
    39     1    33    1
    40     2    34    1
    41     3    35    1
    42    10    36    1
    43    11    37    1
    44    12    38    1
    45    14    39    1
    46    15    40    1
    47    16    41    1
    48    17    42    1
    49    21    43    1
    50    26    44    1
    51    28    45    1
    52    29    46    1
    53    30    47    1
