@<TRIPOS>MOLECULE
*****
 36 42 0 0 0
SMALL
GASTEIGER

@<TRIPOS>ATOM
      1 SI         -0.7693   -2.1318    0.8133 Si      1  UNL1        0.0000
      2 C          -1.9434   -0.6116    0.7293 C.2     1  UNL1        0.0000
      3 C          -1.2562    0.5327    0.4968 C.2     1  UNL1        0.0000
      4 C           0.1481    0.2993    0.4043 C.ar    1  UNL1        0.0000
      5 O           1.1629    1.1952    0.1936 O.2     1  UNL1        0.0000
      6 C           2.2972    0.4373    0.1935 C.ar    1  UNL1        0.0000
      7 C           2.0181   -0.8827    0.3952 C.ar    1  UNL1        0.0000
      8 N           3.2078   -1.5857    0.3828 N.ar    1  UNL1        0.0000
      9 C           4.2496   -0.6916    0.1700 C.ar    1  UNL1        0.0000
     10 C           5.6397   -0.8660    0.0690 C.ar    1  UNL1        0.0000
     11 C           6.4576    0.2668   -0.1555 C.ar    1  UNL1        0.0000
     12 C           5.8332    1.5404   -0.2698 C.ar    1  UNL1        0.0000
     13 N           6.4547    2.7172   -0.4826 N.ar    1  UNL1        0.0000
     14 S           5.2516    3.8894   -0.5314 S.2     1  UNL1        0.0000
     15 N           3.8827    2.9508   -0.2836 N.ar    1  UNL1        0.0000
     16 C           4.3932    1.7381   -0.1675 C.ar    1  UNL1        0.0000
     17 C           3.6640    0.5521    0.0561 C.ar    1  UNL1        0.0000
     18 C           0.6428   -0.9880    0.5325 C.ar    1  UNL1        0.0000
     19 C          -3.3588   -0.6973    0.8191 C.ar    1  UNL1        0.0000
     20 S          -4.1136   -1.6492    2.0631 S.2     1  UNL1        0.0000
     21 C          -5.6989   -1.2488    1.5585 C.ar    1  UNL1        0.0000
     22 C          -5.6800   -0.4098    0.4777 C.ar    1  UNL1        0.0000
     23 N          -6.8143    0.0563   -0.1148 N.ar    1  UNL1        0.0000
     24 C          -6.5082    0.8682   -1.1637 C.ar    1  UNL1        0.0000
     25 C          -5.2118    1.1849   -1.5864 C.ar    1  UNL1        0.0000
     26 N          -4.0662    0.7286   -1.0115 N.ar    1  UNL1        0.0000
     27 C          -4.3389   -0.0875    0.0506 C.ar    1  UNL1        0.0000
     28 H          -0.7619   -2.7642    2.1578 H       1  UNL1        0.0000
     29 H          -1.0071   -3.0830   -0.3029 H       1  UNL1        0.0000
     30 H          -1.6829    1.5198    0.3756 H       1  UNL1        0.0000
     31 H           3.2750   -2.5871    0.5105 H       1  UNL1        0.0000
     32 H           6.0900   -1.8510    0.1604 H       1  UNL1        0.0000
     33 H           7.5351    0.1749   -0.2396 H       1  UNL1        0.0000
     34 H          -6.5627   -1.6415    2.0748 H       1  UNL1        0.0000
     35 H          -7.3669    1.2811   -1.6860 H       1  UNL1        0.0000
     36 H          -5.0621    1.8438   -2.4374 H       1  UNL1        0.0000
@<TRIPOS>BOND
     1     1     2    1
     2     2     3    2
     3     3     4    1
     4     4     5   ar
     5     5     6   ar
     6     6     7   ar
     7     7     8   ar
     8     8     9   ar
     9     9    10   ar
    10    10    11   ar
    11    11    12   ar
    12    12    13   ar
    13    13    14   ar
    14    14    15   ar
    15    15    16   ar
    16    16    17   ar
    17     7    18   ar
    18     2    19    1
    19    19    20   ar
    20    20    21   ar
    21    21    22   ar
    22    22    23   ar
    23    23    24   ar
    24    24    25   ar
    25    25    26   ar
    26    26    27   ar
    27    18     1    1
    28    27    19   ar
    29    18     4   ar
    30    27    22   ar
    31    17     6   ar
    32    17     9   ar
    33    16    12   ar
    34     1    28    1
    35     1    29    1
    36     3    30    1
    37     8    31    1
    38    10    32    1
    39    11    33    1
    40    21    34    1
    41    24    35    1
    42    25    36    1
