@<TRIPOS>MOLECULE
*****
 46 52 0 0 0
SMALL
GASTEIGER

@<TRIPOS>ATOM
      1 SI         -0.2427    1.2716    2.9313 Si      1  UNL1        0.0000
      2 C          -2.0946    1.6261    3.2670 C.2     1  UNL1        0.0000
      3 C          -2.8748    1.1504    2.2722 C.2     1  UNL1        0.0000
      4 C          -2.1687    0.4998    1.2069 C.ar    1  UNL1        0.0000
      5 C          -0.7527    0.4317    1.3236 C.ar    1  UNL1        0.0000
      6 C          -0.1191   -0.2163    0.3046 C.ar    1  UNL1        0.0000
      7 S          -1.2962   -0.7408   -0.8468 S.2     1  UNL1        0.0000
      8 C          -2.6241   -0.0972    0.0562 C.ar    1  UNL1        0.0000
      9 C          -3.9705   -0.2488   -0.4612 C.ar    1  UNL1        0.0000
     10 C          -4.6509   -1.4880   -0.5369 C.ar    1  UNL1        0.0000
     11 C          -5.9884   -1.6333   -1.0284 C.ar    1  UNL1        0.0000
     12 C          -6.7795   -0.5596   -1.4922 C.ar    1  UNL1        0.0000
     13 C          -6.1023    0.6584   -1.4183 C.ar    1  UNL1        0.0000
     14 C          -6.6704    1.8420   -1.8197 C.ar    1  UNL1        0.0000
     15 S          -5.5815    3.1559   -1.6144 S.2     1  UNL1        0.0000
     16 C          -4.3461    2.1341   -0.9911 C.ar    1  UNL1        0.0000
     17 C          -4.7545    0.8215   -0.9255 C.ar    1  UNL1        0.0000
     18 C           1.2765   -0.4583    0.1106 C.ar    1  UNL1        0.0000
     19 S           2.4244    0.8083   -0.0856 S.2     1  UNL1        0.0000
     20 C           3.7591   -0.2771   -0.2506 C.ar    1  UNL1        0.0000
     21 C           5.1063    0.2339   -0.4800 C.ar    1  UNL1        0.0000
     22 C           5.9345   -0.3029   -1.4612 C.ar    1  UNL1        0.0000
     23 C           7.2137    0.2248   -1.6188 C.ar    1  UNL1        0.0000
     24 C           7.6262    1.2657   -0.7958 C.ar    1  UNL1        0.0000
     25 C           6.7380    1.7394    0.1549 C.ar    1  UNL1        0.0000
     26 N           5.4928    1.2472    0.3318 N.ar    1  UNL1        0.0000
     27 C           3.2712   -1.5393   -0.1396 C.ar    1  UNL1        0.0000
     28 C           3.8674   -2.8297   -0.1525 C.ar    1  UNL1        0.0000
     29 C           2.9363   -3.8579    0.0267 C.ar    1  UNL1        0.0000
     30 S           1.2645   -3.3662    0.2382 S.2     1  UNL1        0.0000
     31 C           1.8958   -1.6783    0.0658 C.ar    1  UNL1        0.0000
     32 H           0.4959    2.5462    2.7554 H       1  UNL1        0.0000
     33 H           0.3006    0.3477    3.9580 H       1  UNL1        0.0000
     34 H          -2.4057    2.1443    4.1595 H       1  UNL1        0.0000
     35 H          -3.9551    1.2455    2.2710 H       1  UNL1        0.0000
     36 H          -4.1353   -2.3877   -0.1982 H       1  UNL1        0.0000
     37 H          -6.4187   -2.6354   -1.0430 H       1  UNL1        0.0000
     38 H          -7.7881   -0.6926   -1.8604 H       1  UNL1        0.0000
     39 H          -7.6572    2.0190   -2.2246 H       1  UNL1        0.0000
     40 H          -3.3941    2.5652   -0.7124 H       1  UNL1        0.0000
     41 H           5.5932   -1.1064   -2.1050 H       1  UNL1        0.0000
     42 H           7.8800   -0.1703   -2.3804 H       1  UNL1        0.0000
     43 H           8.6147    1.7005   -0.8942 H       1  UNL1        0.0000
     44 H           7.0116    2.5529    0.8209 H       1  UNL1        0.0000
     45 H           4.9256   -3.0268   -0.2734 H       1  UNL1        0.0000
     46 H           3.1428   -4.9192    0.0560 H       1  UNL1        0.0000
@<TRIPOS>BOND
     1     1     2    1
     2     2     3    2
     3     3     4    1
     4     4     5   ar
     5     5     6   ar
     6     6     7   ar
     7     7     8   ar
     8     8     9    1
     9     9    10   ar
    10    10    11   ar
    11    11    12   ar
    12    12    13   ar
    13    13    14   ar
    14    14    15   ar
    15    15    16   ar
    16    16    17   ar
    17     6    18    1
    18    18    19   ar
    19    19    20   ar
    20    20    21    1
    21    21    22   ar
    22    22    23   ar
    23    23    24   ar
    24    24    25   ar
    25    25    26   ar
    26    20    27   ar
    27    27    28   ar
    28    28    29   ar
    29    29    30   ar
    30    30    31   ar
    31     5     1    1
    32    17     9   ar
    33    31    18   ar
    34     8     4   ar
    35    17    13   ar
    36    26    21   ar
    37    31    27   ar
    38     1    32    1
    39     1    33    1
    40     2    34    1
    41     3    35    1
    42    10    36    1
    43    11    37    1
    44    12    38    1
    45    14    39    1
    46    16    40    1
    47    22    41    1
    48    23    42    1
    49    24    43    1
    50    25    44    1
    51    28    45    1
    52    29    46    1
