@<TRIPOS>MOLECULE
*****
 46 52 0 0 0
SMALL
GASTEIGER

@<TRIPOS>ATOM
      1 SI          1.4668   -2.8780    0.7623 Si      1  UNL1        0.0000
      2 C           3.3433   -3.0597    1.0865 C.2     1  UNL1        0.0000
      3 C           3.9942   -1.8962    0.8692 C.2     1  UNL1        0.0000
      4 C           3.1629   -0.8039    0.4516 C.ar    1  UNL1        0.0000
      5 C           1.7718   -1.0734    0.3177 C.ar    1  UNL1        0.0000
      6 C           1.0075   -0.0065   -0.0531 C.ar    1  UNL1        0.0000
      7 S           2.0297    1.3714   -0.2557 S.2     1  UNL1        0.0000
      8 C           3.4703    0.5052    0.1646 C.ar    1  UNL1        0.0000
      9 C           4.7595    1.1983    0.1508 C.ar    1  UNL1        0.0000
     10 C           5.7918    0.7477   -0.6837 C.ar    1  UNL1        0.0000
     11 C           7.0290    1.3958   -0.6963 C.ar    1  UNL1        0.0000
     12 C           7.2465    2.4991    0.1269 C.ar    1  UNL1        0.0000
     13 C           6.2287    2.9556    0.9625 C.ar    1  UNL1        0.0000
     14 C           4.9909    2.3081    0.9752 C.ar    1  UNL1        0.0000
     15 C          -0.4048    0.0620   -0.2780 C.ar    1  UNL1        0.0000
     16 S          -1.4353    1.1891    0.5552 S.2     1  UNL1        0.0000
     17 C          -2.8827    0.6171   -0.2103 C.ar    1  UNL1        0.0000
     18 C          -4.1893    1.1266    0.0608 C.ar    1  UNL1        0.0000
     19 S          -4.5494    2.8321    0.0821 S.2     1  UNL1        0.0000
     20 C          -6.2345    2.5942    0.4289 C.ar    1  UNL1        0.0000
     21 C          -6.4523    1.2675    0.5197 C.ar    1  UNL1        0.0000
     22 N          -7.6381    0.6493    0.7889 N.ar    1  UNL1        0.0000
     23 C          -7.2543   -0.6905    0.7699 C.ar    1  UNL1        0.0000
     24 C          -5.8765   -0.8333    0.4989 C.ar    1  UNL1        0.0000
     25 C          -5.3451    0.4731    0.3228 C.ar    1  UNL1        0.0000
     26 C          -2.5384   -0.3747   -1.0633 C.ar    1  UNL1        0.0000
     27 N          -3.3564   -1.0872   -1.8961 N.ar    1  UNL1        0.0000
     28 C          -2.4454   -1.9376   -2.5173 C.ar    1  UNL1        0.0000
     29 C          -1.1299   -1.7117   -2.0614 C.ar    1  UNL1        0.0000
     30 C          -1.1928   -0.6742   -1.0938 C.ar    1  UNL1        0.0000
     31 H           1.0623   -3.7295   -0.3848 H       1  UNL1        0.0000
     32 H           0.7003   -3.0851    2.0161 H       1  UNL1        0.0000
     33 H           3.7620   -3.9995    1.4082 H       1  UNL1        0.0000
     34 H           5.0635   -1.7830    1.0078 H       1  UNL1        0.0000
     35 H           5.6331   -0.1071   -1.3374 H       1  UNL1        0.0000
     36 H           7.8206    1.0408   -1.3510 H       1  UNL1        0.0000
     37 H           8.2087    3.0046    0.1163 H       1  UNL1        0.0000
     38 H           6.3964    3.8156    1.6054 H       1  UNL1        0.0000
     39 H           4.2090    2.6724    1.6379 H       1  UNL1        0.0000
     40 H          -6.9249    3.4179    0.5426 H       1  UNL1        0.0000
     41 H          -8.5402    1.0760    0.9620 H       1  UNL1        0.0000
     42 H          -8.0001   -1.4507    0.9655 H       1  UNL1        0.0000
     43 H          -5.3442   -1.7747    0.4534 H       1  UNL1        0.0000
     44 H          -4.3581   -0.9872   -2.0150 H       1  UNL1        0.0000
     45 H          -2.8065   -2.6405   -3.2573 H       1  UNL1        0.0000
     46 H          -0.2498   -2.2350   -2.4120 H       1  UNL1        0.0000
@<TRIPOS>BOND
     1     1     2    1
     2     2     3    2
     3     3     4    1
     4     4     5   ar
     5     5     6   ar
     6     6     7   ar
     7     7     8   ar
     8     8     9    1
     9     9    10   ar
    10    10    11   ar
    11    11    12   ar
    12    12    13   ar
    13    13    14   ar
    14     6    15    1
    15    15    16   ar
    16    16    17   ar
    17    17    18    1
    18    18    19   ar
    19    19    20   ar
    20    20    21   ar
    21    21    22   ar
    22    22    23   ar
    23    23    24   ar
    24    24    25   ar
    25    17    26   ar
    26    26    27   ar
    27    27    28   ar
    28    28    29   ar
    29    29    30   ar
    30     5     1    1
    31    14     9   ar
    32    30    15   ar
    33     8     4   ar
    34    25    18   ar
    35    30    26   ar
    36    25    21   ar
    37     1    31    1
    38     1    32    1
    39     2    33    1
    40     3    34    1
    41    10    35    1
    42    11    36    1
    43    12    37    1
    44    13    38    1
    45    14    39    1
    46    20    40    1
    47    22    41    1
    48    23    42    1
    49    24    43    1
    50    27    44    1
    51    28    45    1
    52    29    46    1
