@<TRIPOS>MOLECULE
*****
 49 55 0 0 0
SMALL
GASTEIGER

@<TRIPOS>ATOM
      1 SI         -1.4117    2.4179    1.7159 Si      1  UNL1        0.0000
      2 C          -3.2764    2.8085    1.9267 C.2     1  UNL1        0.0000
      3 C          -4.0351    2.0737    1.0841 C.2     1  UNL1        0.0000
      4 C          -3.3043    1.1835    0.2286 C.ar    1  UNL1        0.0000
      5 C          -1.8911    1.1777    0.3811 C.ar    1  UNL1        0.0000
      6 C          -1.2244    0.3114   -0.4322 C.ar    1  UNL1        0.0000
      7 S          -2.3611   -0.5205   -1.4277 S.2     1  UNL1        0.0000
      8 C          -3.7271    0.2980   -0.7363 C.ar    1  UNL1        0.0000
      9 C          -5.0696    0.0032   -1.2332 C.ar    1  UNL1        0.0000
     10 C          -5.5881   -1.2949   -1.2411 C.ar    1  UNL1        0.0000
     11 C          -6.8792   -1.5243   -1.7133 C.ar    1  UNL1        0.0000
     12 C          -7.6178   -0.4420   -2.1628 C.ar    1  UNL1        0.0000
     13 N          -7.1586    0.8271   -2.1710 N.ar    1  UNL1        0.0000
     14 C          -5.8974    1.0171   -1.7102 C.ar    1  UNL1        0.0000
     15 C           0.2070    0.0306   -0.5593 C.ar    1  UNL1        0.0000
     16 C           0.9064    0.6968   -1.5738 C.ar    1  UNL1        0.0000
     17 C           2.2731    0.5045   -1.7297 C.ar    1  UNL1        0.0000
     18 C           2.9739   -0.3544   -0.8718 C.ar    1  UNL1        0.0000
     19 C           4.4048   -0.4973   -1.0905 C.ar    1  UNL1        0.0000
     20 S           5.0890   -1.5268   -2.3010 S.2     1  UNL1        0.0000
     21 C           6.7287   -1.1010   -1.8828 C.ar    1  UNL1        0.0000
     22 C           6.6749   -0.2112   -0.8684 C.ar    1  UNL1        0.0000
     23 C           7.5220    0.5455   -0.0439 C.ar    1  UNL1        0.0000
     24 C           6.6605    1.2575    0.8019 C.ar    1  UNL1        0.0000
     25 O           5.3168    1.0138    0.5812 O.2     1  UNL1        0.0000
     26 C           5.4114    0.1180   -0.4401 C.ar    1  UNL1        0.0000
     27 C           2.2895   -1.0457    0.1682 C.ar    1  UNL1        0.0000
     28 C           2.9461   -1.9289    1.0618 C.ar    1  UNL1        0.0000
     29 C           2.2643   -2.6031    2.0747 C.ar    1  UNL1        0.0000
     30 C           0.9008   -2.4174    2.2237 C.ar    1  UNL1        0.0000
     31 C           0.2243   -1.5564    1.3604 C.ar    1  UNL1        0.0000
     32 C           0.8881   -0.8527    0.3243 C.ar    1  UNL1        0.0000
     33 H          -0.8746    1.8067    2.9567 H       1  UNL1        0.0000
     34 H          -0.6889    3.6117    1.2108 H       1  UNL1        0.0000
     35 H          -3.6089    3.5317    2.6538 H       1  UNL1        0.0000
     36 H          -5.1171    2.1419    1.0586 H       1  UNL1        0.0000
     37 H          -4.9964   -2.1304   -0.8755 H       1  UNL1        0.0000
     38 H          -7.2983   -2.5241   -1.7278 H       1  UNL1        0.0000
     39 H          -8.6286   -0.5716   -2.5392 H       1  UNL1        0.0000
     40 H          -5.5583    2.0495   -1.7437 H       1  UNL1        0.0000
     41 H           0.3848    1.3744   -2.2470 H       1  UNL1        0.0000
     42 H           2.7950    1.0356   -2.5234 H       1  UNL1        0.0000
     43 H           7.5717   -1.5288   -2.4062 H       1  UNL1        0.0000
     44 H           8.6013    0.5920   -0.0370 H       1  UNL1        0.0000
     45 H           6.8499    1.9654    1.5985 H       1  UNL1        0.0000
     46 H           4.0166   -2.1054    0.9778 H       1  UNL1        0.0000
     47 H           2.8026   -3.2719    2.7408 H       1  UNL1        0.0000
     48 H           0.3583   -2.9403    3.0065 H       1  UNL1        0.0000
     49 H          -0.8487   -1.4442    1.5050 H       1  UNL1        0.0000
@<TRIPOS>BOND
     1     1     2    1
     2     2     3    2
     3     3     4    1
     4     4     5   ar
     5     5     6   ar
     6     6     7   ar
     7     7     8   ar
     8     8     9    1
     9     9    10   ar
    10    10    11   ar
    11    11    12   ar
    12    12    13   ar
    13    13    14   ar
    14     6    15    1
    15    15    16   ar
    16    16    17   ar
    17    17    18   ar
    18    18    19    1
    19    19    20   ar
    20    20    21   ar
    21    21    22   ar
    22    22    23   ar
    23    23    24   ar
    24    24    25   ar
    25    25    26   ar
    26    18    27   ar
    27    27    28   ar
    28    28    29   ar
    29    29    30   ar
    30    30    31   ar
    31    31    32   ar
    32     5     1    1
    33    14     9   ar
    34    32    15   ar
    35     8     4   ar
    36    26    19   ar
    37    32    27   ar
    38    26    22   ar
    39     1    33    1
    40     1    34    1
    41     2    35    1
    42     3    36    1
    43    10    37    1
    44    11    38    1
    45    12    39    1
    46    14    40    1
    47    16    41    1
    48    17    42    1
    49    21    43    1
    50    23    44    1
    51    24    45    1
    52    28    46    1
    53    29    47    1
    54    30    48    1
    55    31    49    1
