@<TRIPOS>MOLECULE
*****
 44 49 0 0 0
SMALL
GASTEIGER

@<TRIPOS>ATOM
      1 SI          2.4149   -0.7694   -3.2859 Si      1  UNL1        0.0000
      2 C           4.3144   -0.9287   -3.2427 C.2     1  UNL1        0.0000
      3 C           4.8098   -0.6231   -2.0246 C.2     1  UNL1        0.0000
      4 C           3.8334   -0.2443   -1.0420 C.ar    1  UNL1        0.0000
      5 C           2.4727   -0.2531   -1.4691 C.ar    1  UNL1        0.0000
      6 C           1.5425    0.0723   -0.5205 C.ar    1  UNL1        0.0000
      7 S           2.3888    0.3979    0.9592 S.2     1  UNL1        0.0000
      8 C           3.9560    0.1248    0.2772 C.ar    1  UNL1        0.0000
      9 C           5.1299    0.3042    1.0896 C.ar    1  UNL1        0.0000
     10 C           6.3991    0.7232    0.7184 C.ar    1  UNL1        0.0000
     11 C           7.1977    0.7566    1.8882 C.ar    1  UNL1        0.0000
     12 C           6.3785    0.3589    2.9143 C.ar    1  UNL1        0.0000
     13 O           5.1348    0.0893    2.4483 O.2     1  UNL1        0.0000
     14 C           0.1363    0.1845   -0.5965 C.2     1  UNL1        0.0000
     15 SI         -1.0670   -0.7590    0.5139 Si      1  UNL1        0.0000
     16 C          -2.4644    0.1109   -0.4234 C.2     1  UNL1        0.0000
     17 C          -1.9745    0.9157   -1.3881 C.2     1  UNL1        0.0000
     18 C          -0.5217    0.9671   -1.4765 C.2     1  UNL1        0.0000
     19 C          -3.8606   -0.1535   -0.1551 C.ar    1  UNL1        0.0000
     20 C          -4.7422   -0.8010   -1.0579 C.ar    1  UNL1        0.0000
     21 C          -6.1311   -1.0634   -0.7837 C.ar    1  UNL1        0.0000
     22 C          -6.7870   -0.6998    0.4148 C.ar    1  UNL1        0.0000
     23 C          -5.9092   -0.0541    1.2763 C.ar    1  UNL1        0.0000
     24 C          -6.2221    0.4472    2.5126 C.ar    1  UNL1        0.0000
     25 N          -5.0730    1.0222    3.0129 N.ar    1  UNL1        0.0000
     26 C          -4.0385    0.8916    2.1090 C.ar    1  UNL1        0.0000
     27 C          -4.5282    0.2105    1.0202 C.ar    1  UNL1        0.0000
     28 H           1.7836   -2.0906   -3.5262 H       1  UNL1        0.0000
     29 H           1.9983    0.3167   -4.2093 H       1  UNL1        0.0000
     30 H           4.8633   -1.2440   -4.1149 H       1  UNL1        0.0000
     31 H           5.8679   -0.6799   -1.7997 H       1  UNL1        0.0000
     32 H           6.7084    0.9970   -0.2803 H       1  UNL1        0.0000
     33 H           8.2361    1.0429    1.9728 H       1  UNL1        0.0000
     34 H           6.5166    0.2311    3.9796 H       1  UNL1        0.0000
     35 H          -1.0429   -2.2241    0.2554 H       1  UNL1        0.0000
     36 H          -0.9878   -0.3392    1.9395 H       1  UNL1        0.0000
     37 H          -2.5908    1.4999   -2.0612 H       1  UNL1        0.0000
     38 H          -0.0426    1.6126   -2.2035 H       1  UNL1        0.0000
     39 H          -4.3501   -1.1320   -2.0210 H       1  UNL1        0.0000
     40 H          -6.7109   -1.5755   -1.5533 H       1  UNL1        0.0000
     41 H          -7.8309   -0.8983    0.6083 H       1  UNL1        0.0000
     42 H          -7.1410    0.4626    3.0817 H       1  UNL1        0.0000
     43 H          -5.0006    1.4877    3.9082 H       1  UNL1        0.0000
     44 H          -3.0656    1.3056    2.3351 H       1  UNL1        0.0000
@<TRIPOS>BOND
     1     1     2    1
     2     2     3    2
     3     3     4    1
     4     4     5   ar
     5     5     6   ar
     6     6     7   ar
     7     7     8   ar
     8     8     9    1
     9     9    10   ar
    10    10    11   ar
    11    11    12   ar
    12    12    13   ar
    13     6    14    1
    14    14    15    1
    15    15    16    1
    16    16    17    2
    17    17    18    1
    18    16    19    1
    19    19    20   ar
    20    20    21   ar
    21    21    22   ar
    22    22    23   ar
    23    23    24   ar
    24    24    25   ar
    25    25    26   ar
    26    26    27   ar
    27     5     1    1
    28    13     9   ar
    29    18    14    2
    30    27    19   ar
    31     8     4   ar
    32    27    23   ar
    33     1    28    1
    34     1    29    1
    35     2    30    1
    36     3    31    1
    37    10    32    1
    38    11    33    1
    39    12    34    1
    40    15    35    1
    41    15    36    1
    42    17    37    1
    43    18    38    1
    44    20    39    1
    45    21    40    1
    46    22    41    1
    47    24    42    1
    48    25    43    1
    49    26    44    1
