@<TRIPOS>MOLECULE
*****
 41 46 0 0 0
SMALL
GASTEIGER

@<TRIPOS>ATOM
      1 SI         -1.7179    0.7250    2.8076 Si      1  UNL1        0.0000
      2 C          -3.5953    0.7215    3.1508 C.2     1  UNL1        0.0000
      3 C          -4.3016    0.4446    2.0331 C.2     1  UNL1        0.0000
      4 C          -3.5143    0.2196    0.8535 C.ar    1  UNL1        0.0000
      5 C          -2.1010    0.2973    1.0105 C.ar    1  UNL1        0.0000
      6 C          -1.3759    0.0676   -0.1217 C.ar    1  UNL1        0.0000
      7 S          -2.4630   -0.2525   -1.4253 S.2     1  UNL1        0.0000
      8 C          -3.8785   -0.0777   -0.4398 C.ar    1  UNL1        0.0000
      9 C          -5.2004   -0.2083   -0.9968 C.ar    1  UNL1        0.0000
     10 C          -6.2443    0.6897   -0.8724 C.ar    1  UNL1        0.0000
     11 C          -7.4278    0.2503   -1.5352 C.ar    1  UNL1        0.0000
     12 C          -7.2518   -0.9723   -2.1422 C.ar    1  UNL1        0.0000
     13 S          -5.6708   -1.5811   -1.9117 S.2     1  UNL1        0.0000
     14 C           0.0640    0.0402   -0.3485 C.ar    1  UNL1        0.0000
     15 C           0.8850   -0.8543    0.3388 C.ar    1  UNL1        0.0000
     16 C           2.2628   -0.8471    0.1131 C.ar    1  UNL1        0.0000
     17 C           2.7948    0.0613   -0.7976 C.ar    1  UNL1        0.0000
     18 N           2.0188    0.9400   -1.4765 N.ar    1  UNL1        0.0000
     19 C           0.6839    0.9071   -1.2423 C.ar    1  UNL1        0.0000
     20 C           4.2303    0.1294   -1.0687 C.ar    1  UNL1        0.0000
     21 S           4.8324    0.6292   -2.6347 S.2     1  UNL1        0.0000
     22 C           6.4988    0.4377   -2.1954 C.ar    1  UNL1        0.0000
     23 C           6.5408    0.0173   -0.9167 C.ar    1  UNL1        0.0000
     24 N           7.6599   -0.2486   -0.1834 N.ar    1  UNL1        0.0000
     25 C           7.1010   -0.6241    1.0359 C.ar    1  UNL1        0.0000
     26 C           5.6910   -0.5719    0.9984 C.ar    1  UNL1        0.0000
     27 C           5.3168   -0.1497   -0.3076 C.ar    1  UNL1        0.0000
     28 H          -1.0367   -0.3681    3.5459 H       1  UNL1        0.0000
     29 H          -1.1479    2.0809    3.0001 H       1  UNL1        0.0000
     30 H          -3.9791    0.9165    4.1393 H       1  UNL1        0.0000
     31 H          -5.3840    0.3840    2.0235 H       1  UNL1        0.0000
     32 H          -6.1615    1.6283   -0.3375 H       1  UNL1        0.0000
     33 H          -8.3579    0.8042   -1.5667 H       1  UNL1        0.0000
     34 H          -7.9740   -1.5403   -2.7124 H       1  UNL1        0.0000
     35 H           0.4618   -1.5722    1.0368 H       1  UNL1        0.0000
     36 H           2.8966   -1.5570    0.6329 H       1  UNL1        0.0000
     37 H           0.1110    1.6346   -1.8119 H       1  UNL1        0.0000
     38 H           7.3069    0.6429   -2.8828 H       1  UNL1        0.0000
     39 H           8.6275   -0.1773   -0.4738 H       1  UNL1        0.0000
     40 H           7.7588   -0.8974    1.8511 H       1  UNL1        0.0000
     41 H           5.0410   -0.8068    1.8304 H       1  UNL1        0.0000
@<TRIPOS>BOND
     1     1     2    1
     2     2     3    2
     3     3     4    1
     4     4     5   ar
     5     5     6   ar
     6     6     7   ar
     7     7     8   ar
     8     8     9    1
     9     9    10   ar
    10    10    11   ar
    11    11    12   ar
    12    12    13   ar
    13     6    14    1
    14    14    15   ar
    15    15    16   ar
    16    16    17   ar
    17    17    18   ar
    18    18    19   ar
    19    17    20    1
    20    20    21   ar
    21    21    22   ar
    22    22    23   ar
    23    23    24   ar
    24    24    25   ar
    25    25    26   ar
    26    26    27   ar
    27     5     1    1
    28    13     9   ar
    29    19    14   ar
    30    27    20   ar
    31     8     4   ar
    32    27    23   ar
    33     1    28    1
    34     1    29    1
    35     2    30    1
    36     3    31    1
    37    10    32    1
    38    11    33    1
    39    12    34    1
    40    15    35    1
    41    16    36    1
    42    19    37    1
    43    22    38    1
    44    24    39    1
    45    25    40    1
    46    26    41    1
