@<TRIPOS>MOLECULE
*****
 46 52 0 0 0
SMALL
GASTEIGER

@<TRIPOS>ATOM
      1 SI         -3.3532   -2.6181    0.7119 Si      1  UNL1        0.0000
      2 C          -1.7132   -3.4642    1.2240 C.2     1  UNL1        0.0000
      3 C          -0.6531   -2.6535    1.0112 C.2     1  UNL1        0.0000
      4 C          -0.9735   -1.3706    0.4541 C.ar    1  UNL1        0.0000
      5 C          -2.3481   -1.1028    0.2048 C.ar    1  UNL1        0.0000
      6 C          -2.6116    0.1217   -0.3387 C.ar    1  UNL1        0.0000
      7 S          -1.1234    0.9743   -0.5562 S.2     1  UNL1        0.0000
      8 C          -0.1699   -0.3189    0.0854 C.ar    1  UNL1        0.0000
      9 C           1.2688   -0.1720    0.1331 C.ar    1  UNL1        0.0000
     10 C           2.1060   -0.3806   -0.9577 C.ar    1  UNL1        0.0000
     11 N           3.4703   -0.2735   -0.9820 N.ar    1  UNL1        0.0000
     12 C           4.1998    0.0878    0.1414 C.ar    1  UNL1        0.0000
     13 C           5.6622    0.1709    0.0181 C.ar    1  UNL1        0.0000
     14 C           6.3367   -0.4246   -1.0538 C.ar    1  UNL1        0.0000
     15 C           7.7244   -0.3256   -1.1427 C.ar    1  UNL1        0.0000
     16 C           8.4172    0.3671   -0.1623 C.ar    1  UNL1        0.0000
     17 C           7.6873    0.9419    0.8631 C.ar    1  UNL1        0.0000
     18 N           6.3425    0.8606    0.9684 N.ar    1  UNL1        0.0000
     19 C           3.4586    0.3246    1.3405 C.ar    1  UNL1        0.0000
     20 N           3.9162    0.6478    2.5654 N.ar    1  UNL1        0.0000
     21 S           2.6096    0.8244    3.5606 S.2     1  UNL1        0.0000
     22 N           1.3831    0.4220    2.5229 N.ar    1  UNL1        0.0000
     23 C           1.9458    0.1844    1.3229 C.ar    1  UNL1        0.0000
     24 C          -3.8551    0.7457   -0.7346 C.ar    1  UNL1        0.0000
     25 C          -4.2147    1.0685   -2.0674 C.ar    1  UNL1        0.0000
     26 C          -5.4690    1.6750   -2.4383 C.ar    1  UNL1        0.0000
     27 C          -6.4904    2.0225   -1.5214 C.ar    1  UNL1        0.0000
     28 C          -6.1075    1.7010   -0.2260 C.ar    1  UNL1        0.0000
     29 C          -6.8271    1.9000    0.9212 C.ar    1  UNL1        0.0000
     30 O          -6.1050    1.4516    1.9964 O.2     1  UNL1        0.0000
     31 C          -4.9062    0.9848    1.5223 C.ar    1  UNL1        0.0000
     32 C          -4.8702    1.1005    0.1556 C.ar    1  UNL1        0.0000
     33 H          -3.9792   -3.3409   -0.4243 H       1  UNL1        0.0000
     34 H          -4.2177   -2.4013    1.8991 H       1  UNL1        0.0000
     35 H          -1.7096   -4.4638    1.6315 H       1  UNL1        0.0000
     36 H           0.3657   -2.9434    1.2443 H       1  UNL1        0.0000
     37 H           1.6770   -0.6778   -1.9173 H       1  UNL1        0.0000
     38 H           5.7871   -0.9685   -1.8180 H       1  UNL1        0.0000
     39 H           8.2541   -0.7856   -1.9727 H       1  UNL1        0.0000
     40 H           9.4965    0.4629   -0.1978 H       1  UNL1        0.0000
     41 H           8.1773    1.4996    1.6558 H       1  UNL1        0.0000
     42 H          -3.5072    0.8460   -2.8684 H       1  UNL1        0.0000
     43 H          -5.6372    1.8798   -3.4972 H       1  UNL1        0.0000
     44 H          -7.4252    2.4802   -1.8132 H       1  UNL1        0.0000
     45 H          -7.7971    2.3150    1.1533 H       1  UNL1        0.0000
     46 H          -4.2219    0.6252    2.2767 H       1  UNL1        0.0000
@<TRIPOS>BOND
     1     1     2    1
     2     2     3    2
     3     3     4    1
     4     4     5   ar
     5     5     6   ar
     6     6     7   ar
     7     7     8   ar
     8     8     9    1
     9     9    10   ar
    10    10    11   ar
    11    11    12   ar
    12    12    13    1
    13    13    14   ar
    14    14    15   ar
    15    15    16   ar
    16    16    17   ar
    17    17    18   ar
    18    12    19   ar
    19    19    20   ar
    20    20    21   ar
    21    21    22   ar
    22    22    23   ar
    23     6    24    1
    24    24    25   ar
    25    25    26   ar
    26    26    27   ar
    27    27    28   ar
    28    28    29   ar
    29    29    30   ar
    30    30    31   ar
    31    31    32   ar
    32     5     1    1
    33    23     9   ar
    34    32    24   ar
    35     8     4   ar
    36    18    13   ar
    37    23    19   ar
    38    32    28   ar
    39     1    33    1
    40     1    34    1
    41     2    35    1
    42     3    36    1
    43    10    37    1
    44    14    38    1
    45    15    39    1
    46    16    40    1
    47    17    41    1
    48    25    42    1
    49    26    43    1
    50    27    44    1
    51    29    45    1
    52    31    46    1
