@<TRIPOS>MOLECULE
*****
 44 50 0 0 0
SMALL
GASTEIGER

@<TRIPOS>ATOM
      1 SI         -2.5397   -1.5607    2.7915 Si      1  UNL1        0.0000
      2 C          -0.8882   -2.4972    3.0830 C.2     1  UNL1        0.0000
      3 C           0.0633   -2.1110    2.2060 C.2     1  UNL1        0.0000
      4 C          -0.3525   -1.1071    1.2666 C.ar    1  UNL1        0.0000
      5 C          -1.6990   -0.6499    1.3731 C.ar    1  UNL1        0.0000
      6 C          -2.0631    0.3115    0.4786 C.ar    1  UNL1        0.0000
      7 S          -0.7035    0.6885   -0.5158 S.2     1  UNL1        0.0000
      8 C           0.3307   -0.4657    0.2625 C.ar    1  UNL1        0.0000
      9 C           1.6824   -0.6613   -0.1758 C.ar    1  UNL1        0.0000
     10 C           2.2729   -1.8262   -0.6174 C.ar    1  UNL1        0.0000
     11 N           3.5954   -1.7250   -1.0123 N.ar    1  UNL1        0.0000
     12 C           4.0235   -0.4893   -0.8087 C.ar    1  UNL1        0.0000
     13 S           2.8361    0.6013   -0.2125 S.2     1  UNL1        0.0000
     14 C           5.3426   -0.0186   -1.1854 C.ar    1  UNL1        0.0000
     15 C           5.9542   -0.3699   -2.3922 C.ar    1  UNL1        0.0000
     16 N           7.1834    0.0337   -2.8589 N.ar    1  UNL1        0.0000
     17 C           7.9699    0.8679   -2.1171 C.ar    1  UNL1        0.0000
     18 C           7.4960    1.2795   -0.8551 C.ar    1  UNL1        0.0000
     19 N           8.1325    2.0772    0.0118 N.ar    1  UNL1        0.0000
     20 S           7.1507    2.1996    1.3462 S.2     1  UNL1        0.0000
     21 N           5.8812    1.2451    0.8826 N.ar    1  UNL1        0.0000
     22 C           6.1464    0.8120   -0.3652 C.ar    1  UNL1        0.0000
     23 C          -3.3182    1.0039    0.2718 C.ar    1  UNL1        0.0000
     24 C          -3.5234    2.3920    0.4835 C.ar    1  UNL1        0.0000
     25 C          -4.7846    3.0594    0.2835 C.ar    1  UNL1        0.0000
     26 C          -5.9669    2.4126   -0.1483 C.ar    1  UNL1        0.0000
     27 C          -5.7370    1.0560   -0.3539 C.ar    1  UNL1        0.0000
     28 C          -6.6602    0.1404   -0.7904 C.ar    1  UNL1        0.0000
     29 N          -6.0108   -1.0728   -0.8781 N.ar    1  UNL1        0.0000
     30 C          -4.6902   -0.9372   -0.5012 C.ar    1  UNL1        0.0000
     31 C          -4.4938    0.3793   -0.1592 C.ar    1  UNL1        0.0000
     32 H          -2.8673   -0.7132    3.9709 H       1  UNL1        0.0000
     33 H          -3.5922   -2.5166    2.3653 H       1  UNL1        0.0000
     34 H          -0.7973   -3.2239    3.8742 H       1  UNL1        0.0000
     35 H           1.0719   -2.5163    2.2154 H       1  UNL1        0.0000
     36 H           1.7766   -2.7863   -0.6880 H       1  UNL1        0.0000
     37 H           5.4318   -1.0366   -3.0802 H       1  UNL1        0.0000
     38 H           8.9264    1.1626   -2.5294 H       1  UNL1        0.0000
     39 H          -2.6814    2.9989    0.8204 H       1  UNL1        0.0000
     40 H          -4.8255    4.1346    0.4749 H       1  UNL1        0.0000
     41 H          -6.9062    2.9253   -0.3009 H       1  UNL1        0.0000
     42 H          -7.7043    0.2282   -1.0569 H       1  UNL1        0.0000
     43 H          -6.4363   -1.9359   -1.1894 H       1  UNL1        0.0000
     44 H          -4.0265   -1.7889   -0.5265 H       1  UNL1        0.0000
@<TRIPOS>BOND
     1     1     2    1
     2     2     3    2
     3     3     4    1
     4     4     5   ar
     5     5     6   ar
     6     6     7   ar
     7     7     8   ar
     8     8     9    1
     9     9    10   ar
    10    10    11   ar
    11    11    12   ar
    12    12    13   ar
    13    12    14    1
    14    14    15   ar
    15    15    16   ar
    16    16    17   ar
    17    17    18   ar
    18    18    19   ar
    19    19    20   ar
    20    20    21   ar
    21    21    22   ar
    22     6    23    1
    23    23    24   ar
    24    24    25   ar
    25    25    26   ar
    26    26    27   ar
    27    27    28   ar
    28    28    29   ar
    29    29    30   ar
    30    30    31   ar
    31     5     1    1
    32    13     9   ar
    33    22    14   ar
    34    31    23   ar
    35     8     4   ar
    36    22    18   ar
    37    31    27   ar
    38     1    32    1
    39     1    33    1
    40     2    34    1
    41     3    35    1
    42    10    36    1
    43    15    37    1
    44    17    38    1
    45    24    39    1
    46    25    40    1
    47    26    41    1
    48    28    42    1
    49    29    43    1
    50    30    44    1
