@<TRIPOS>MOLECULE
*****
 42 47 0 0 0
SMALL
GASTEIGER

@<TRIPOS>ATOM
      1 SI          1.2870   -3.5044    1.2808 Si      1  UNL1        0.0000
      2 C           3.1870   -3.3612    1.4104 C.2     1  UNL1        0.0000
      3 C           3.6309   -2.2087    0.8648 C.2     1  UNL1        0.0000
      4 C           2.6091   -1.3649    0.3146 C.ar    1  UNL1        0.0000
      5 C           1.2664   -1.8365    0.3995 C.ar    1  UNL1        0.0000
      6 C           0.3224   -1.0010   -0.1231 C.ar    1  UNL1        0.0000
      7 S           1.1150    0.4118   -0.7388 S.2     1  UNL1        0.0000
      8 C           2.6909   -0.1326   -0.2863 C.ar    1  UNL1        0.0000
      9 C           3.8485    0.6830   -0.5991 C.ar    1  UNL1        0.0000
     10 C           4.8559    0.2911   -1.4856 C.ar    1  UNL1        0.0000
     11 N           5.9896    0.9895   -1.8245 N.ar    1  UNL1        0.0000
     12 C           6.2395    2.2168   -1.2799 C.ar    1  UNL1        0.0000
     13 C           5.3096    2.7393   -0.3582 C.ar    1  UNL1        0.0000
     14 N           5.3932    3.9181    0.2797 N.ar    1  UNL1        0.0000
     15 S           4.0485    4.0220    1.2472 S.2     1  UNL1        0.0000
     16 N           3.3049    2.5816    0.9011 N.ar    1  UNL1        0.0000
     17 C           4.0752    1.9475   -0.0027 C.ar    1  UNL1        0.0000
     18 C          -1.1022   -1.1489   -0.2100 C.ar    1  UNL1        0.0000
     19 C          -1.8903   -2.2777   -0.3065 C.ar    1  UNL1        0.0000
     20 C          -3.2438   -1.8581   -0.3508 C.ar    1  UNL1        0.0000
     21 C          -3.2709   -0.4753   -0.2966 C.ar    1  UNL1        0.0000
     22 N          -1.9569   -0.0700   -0.2093 N.ar    1  UNL1        0.0000
     23 C          -4.3971    0.4603   -0.3038 C.ar    1  UNL1        0.0000
     24 C          -5.6119    0.1089    0.3004 C.ar    1  UNL1        0.0000
     25 C          -6.6922    0.9955    0.3025 C.ar    1  UNL1        0.0000
     26 C          -6.5714    2.2436   -0.3037 C.ar    1  UNL1        0.0000
     27 C          -5.3723    2.6047   -0.9136 C.ar    1  UNL1        0.0000
     28 C          -4.2914    1.7182   -0.9143 C.ar    1  UNL1        0.0000
     29 H           0.6730   -3.4968    2.6317 H       1  UNL1        0.0000
     30 H           0.9057   -4.6502    0.4169 H       1  UNL1        0.0000
     31 H           3.7705   -4.1356    1.8818 H       1  UNL1        0.0000
     32 H           4.6796   -1.9337    0.8502 H       1  UNL1        0.0000
     33 H           4.7772   -0.6699   -1.9957 H       1  UNL1        0.0000
     34 H           7.1441    2.7289   -1.5798 H       1  UNL1        0.0000
     35 H          -1.5445   -3.3008   -0.3574 H       1  UNL1        0.0000
     36 H          -4.1101   -2.5021   -0.4331 H       1  UNL1        0.0000
     37 H          -1.6518    0.8898   -0.1280 H       1  UNL1        0.0000
     38 H          -5.7249   -0.8567    0.7873 H       1  UNL1        0.0000
     39 H          -7.6262    0.7098    0.7790 H       1  UNL1        0.0000
     40 H          -7.4120    2.9325   -0.3039 H       1  UNL1        0.0000
     41 H          -5.2784    3.5746   -1.3950 H       1  UNL1        0.0000
     42 H          -3.3753    2.0176   -1.4166 H       1  UNL1        0.0000
@<TRIPOS>BOND
     1     1     2    1
     2     2     3    2
     3     3     4    1
     4     4     5   ar
     5     5     6   ar
     6     6     7   ar
     7     7     8   ar
     8     8     9    1
     9     9    10   ar
    10    10    11   ar
    11    11    12   ar
    12    12    13   ar
    13    13    14   ar
    14    14    15   ar
    15    15    16   ar
    16    16    17   ar
    17     6    18    1
    18    18    19   ar
    19    19    20   ar
    20    20    21   ar
    21    21    22   ar
    22    21    23    1
    23    23    24   ar
    24    24    25   ar
    25    25    26   ar
    26    26    27   ar
    27    27    28   ar
    28     5     1    1
    29    17     9   ar
    30    22    18   ar
    31    28    23   ar
    32     8     4   ar
    33    17    13   ar
    34     1    29    1
    35     1    30    1
    36     2    31    1
    37     3    32    1
    38    10    33    1
    39    12    34    1
    40    19    35    1
    41    20    36    1
    42    22    37    1
    43    24    38    1
    44    25    39    1
    45    26    40    1
    46    27    41    1
    47    28    42    1
