@<TRIPOS>MOLECULE
*****
 35 40 0 0 0
SMALL
GASTEIGER

@<TRIPOS>ATOM
      1 SI          1.1268   -1.8973   -2.0999 Si      1  UNL1        0.0000
      2 C          -0.6806   -2.4839   -2.2988 C.2     1  UNL1        0.0000
      3 C          -1.4979   -1.8689   -1.4169 C.2     1  UNL1        0.0000
      4 C          -0.8534   -0.9388   -0.5342 C.ar    1  UNL1        0.0000
      5 C           0.5529   -0.7784   -0.6918 C.ar    1  UNL1        0.0000
      6 C           1.1437    0.0876    0.1818 C.ar    1  UNL1        0.0000
      7 S          -0.0733    0.7372    1.2252 S.2     1  UNL1        0.0000
      8 C          -1.3556   -0.1602    0.4814 C.ar    1  UNL1        0.0000
      9 C          -2.7094   -0.0013    0.9846 C.ar    1  UNL1        0.0000
     10 C          -3.0943   -0.2415    2.3085 C.ar    1  UNL1        0.0000
     11 N          -4.3501   -0.1174    2.8537 N.ar    1  UNL1        0.0000
     12 C          -5.4039    0.2866    2.0859 C.ar    1  UNL1        0.0000
     13 C          -5.1674    0.5683    0.7254 C.ar    1  UNL1        0.0000
     14 N          -6.0773    0.9740   -0.1751 N.ar    1  UNL1        0.0000
     15 S          -5.2626    1.1671   -1.6080 S.2     1  UNL1        0.0000
     16 N          -3.7297    0.7333   -1.1531 N.ar    1  UNL1        0.0000
     17 C          -3.7778    0.4201    0.1552 C.ar    1  UNL1        0.0000
     18 C           2.5289    0.5020    0.3513 C.ar    1  UNL1        0.0000
     19 C           3.2439    0.3165    1.5565 C.ar    1  UNL1        0.0000
     20 C           4.5903    0.7138    1.7324 C.ar    1  UNL1        0.0000
     21 C           5.3439    1.3320    0.7211 C.ar    1  UNL1        0.0000
     22 C           4.6827    1.5461   -0.5122 C.ar    1  UNL1        0.0000
     23 N           5.2270    2.1171   -1.5975 N.ar    1  UNL1        0.0000
     24 S           4.0429    2.1407   -2.7596 S.2     1  UNL1        0.0000
     25 N           2.7944    1.4136   -1.9475 N.ar    1  UNL1        0.0000
     26 C           3.2429    1.1252   -0.7122 C.ar    1  UNL1        0.0000
     27 H           1.5797   -1.2079   -3.3328 H       1  UNL1        0.0000
     28 H           1.9900   -3.0196   -1.6519 H       1  UNL1        0.0000
     29 H          -0.9488   -3.2077   -3.0511 H       1  UNL1        0.0000
     30 H          -2.5647   -2.0564   -1.3784 H       1  UNL1        0.0000
     31 H          -2.3499   -0.5757    3.0323 H       1  UNL1        0.0000
     32 H          -6.3727    0.3714    2.5600 H       1  UNL1        0.0000
     33 H           2.7406   -0.1613    2.3986 H       1  UNL1        0.0000
     34 H           5.0642    0.5317    2.6977 H       1  UNL1        0.0000
     35 H           6.3744    1.6319    0.8696 H       1  UNL1        0.0000
@<TRIPOS>BOND
     1     1     2    1
     2     2     3    2
     3     3     4    1
     4     4     5   ar
     5     5     6   ar
     6     6     7   ar
     7     7     8   ar
     8     8     9    1
     9     9    10   ar
    10    10    11   ar
    11    11    12   ar
    12    12    13   ar
    13    13    14   ar
    14    14    15   ar
    15    15    16   ar
    16    16    17   ar
    17     6    18    1
    18    18    19   ar
    19    19    20   ar
    20    20    21   ar
    21    21    22   ar
    22    22    23   ar
    23    23    24   ar
    24    24    25   ar
    25    25    26   ar
    26     5     1    1
    27    17     9   ar
    28    26    18   ar
    29     8     4   ar
    30    17    13   ar
    31    26    22   ar
    32     1    27    1
    33     1    28    1
    34     2    29    1
    35     3    30    1
    36    10    31    1
    37    12    32    1
    38    19    33    1
    39    20    34    1
    40    21    35    1
