@<TRIPOS>MOLECULE
*****
 46 52 0 0 0
SMALL
GASTEIGER

@<TRIPOS>ATOM
      1 SI          1.9710    1.7444    2.3352 Si      1  UNL1        0.0000
      2 C           3.8516    1.9796    2.5920 C.2     1  UNL1        0.0000
      3 C           4.5694    1.1952    1.7583 C.2     1  UNL1        0.0000
      4 C           3.7938    0.3715    0.8738 C.ar    1  UNL1        0.0000
      5 C           2.3800    0.4778    1.0017 C.ar    1  UNL1        0.0000
      6 C           1.6585   -0.3288    0.1744 C.ar    1  UNL1        0.0000
      7 S           2.7395   -1.2632   -0.7882 S.2     1  UNL1        0.0000
      8 C           4.1589   -0.5410   -0.0915 C.ar    1  UNL1        0.0000
      9 C           5.4636   -0.9335   -0.5505 C.ar    1  UNL1        0.0000
     10 C           5.9425   -2.2116   -0.7805 C.ar    1  UNL1        0.0000
     11 N           7.2448   -2.3027   -1.2391 N.ar    1  UNL1        0.0000
     12 C           7.7357   -1.0911   -1.3696 C.ar    1  UNL1        0.0000
     13 S           6.6908    0.2008   -0.9522 S.2     1  UNL1        0.0000
     14 C           0.2112   -0.4954    0.0275 C.ar    1  UNL1        0.0000
     15 C          -0.3936   -1.5302    0.7488 C.ar    1  UNL1        0.0000
     16 C          -1.7681   -1.7233    0.6834 C.ar    1  UNL1        0.0000
     17 C          -2.5841   -0.8876   -0.0995 C.ar    1  UNL1        0.0000
     18 C          -4.0246   -1.1501   -0.1185 C.ar    1  UNL1        0.0000
     19 N          -4.6161   -1.5399   -1.2970 N.ar    1  UNL1        0.0000
     20 C          -5.9561   -1.8136   -1.3678 C.ar    1  UNL1        0.0000
     21 C          -6.8846   -1.7487   -0.3347 C.ar    1  UNL1        0.0000
     22 C          -6.3262   -1.3554    0.8955 C.ar    1  UNL1        0.0000
     23 N          -7.0037   -1.2165    2.0461 N.ar    1  UNL1        0.0000
     24 S          -5.8993   -0.7378    3.1890 S.2     1  UNL1        0.0000
     25 N          -4.5132   -0.6908    2.2797 N.ar    1  UNL1        0.0000
     26 C          -4.8582   -1.0455    1.0276 C.ar    1  UNL1        0.0000
     27 C          -1.9849    0.1733   -0.8440 C.ar    1  UNL1        0.0000
     28 C          -2.7413    1.0625   -1.6481 C.ar    1  UNL1        0.0000
     29 C          -2.1528    2.1017   -2.3694 C.ar    1  UNL1        0.0000
     30 C          -0.7830    2.2863   -2.3103 C.ar    1  UNL1        0.0000
     31 C          -0.0075    1.4325   -1.5278 C.ar    1  UNL1        0.0000
     32 C          -0.5753    0.3708   -0.7796 C.ar    1  UNL1        0.0000
     33 H           1.3502    1.1686    3.5541 H       1  UNL1        0.0000
     34 H           1.3609    2.9968    1.8242 H       1  UNL1        0.0000
     35 H           4.2254    2.6657    3.3350 H       1  UNL1        0.0000
     36 H           5.6529    1.1799    1.7650 H       1  UNL1        0.0000
     37 H           5.3808   -3.1249   -0.6227 H       1  UNL1        0.0000
     38 H           8.7432   -0.9119   -1.7216 H       1  UNL1        0.0000
     39 H           0.2069   -2.1923    1.3694 H       1  UNL1        0.0000
     40 H          -2.2073   -2.5406    1.2536 H       1  UNL1        0.0000
     41 H          -6.2853   -2.1115   -2.3636 H       1  UNL1        0.0000
     42 H          -7.9324   -1.9791   -0.4615 H       1  UNL1        0.0000
     43 H          -3.8206    0.9502   -1.7315 H       1  UNL1        0.0000
     44 H          -2.7687    2.7576   -2.9787 H       1  UNL1        0.0000
     45 H          -0.3121    3.0880   -2.8725 H       1  UNL1        0.0000
     46 H           1.0672    1.6061   -1.5140 H       1  UNL1        0.0000
@<TRIPOS>BOND
     1     1     2    1
     2     2     3    2
     3     3     4    1
     4     4     5   ar
     5     5     6   ar
     6     6     7   ar
     7     7     8   ar
     8     8     9    1
     9     9    10   ar
    10    10    11   ar
    11    11    12   ar
    12    12    13   ar
    13     6    14    1
    14    14    15   ar
    15    15    16   ar
    16    16    17   ar
    17    17    18    1
    18    18    19   ar
    19    19    20   ar
    20    20    21   ar
    21    21    22   ar
    22    22    23   ar
    23    23    24   ar
    24    24    25   ar
    25    25    26   ar
    26    17    27   ar
    27    27    28   ar
    28    28    29   ar
    29    29    30   ar
    30    30    31   ar
    31    31    32   ar
    32     5     1    1
    33    13     9   ar
    34    32    14   ar
    35     8     4   ar
    36    26    18   ar
    37    32    27   ar
    38    26    22   ar
    39     1    33    1
    40     1    34    1
    41     2    35    1
    42     3    36    1
    43    10    37    1
    44    12    38    1
    45    15    39    1
    46    16    40    1
    47    20    41    1
    48    21    42    1
    49    28    43    1
    50    29    44    1
    51    30    45    1
    52    31    46    1
