@<TRIPOS>MOLECULE
*****
 45 52 0 0 0
SMALL
GASTEIGER

@<TRIPOS>ATOM
      1 SI          2.2311    0.6805    0.7646 Si      1  UNL1        0.0000
      2 C           3.0137   -0.6932   -0.3423 C.2     1  UNL1        0.0000
      3 C           2.0394   -1.3719   -0.9977 C.2     1  UNL1        0.0000
      4 C           0.7397   -0.8831   -0.6851 C.ar    1  UNL1        0.0000
      5 O          -0.4785   -1.2890   -1.1277 O.2     1  UNL1        0.0000
      6 C          -1.4183   -0.4919   -0.5238 C.ar    1  UNL1        0.0000
      7 C          -0.8174    0.4450    0.3218 C.ar    1  UNL1        0.0000
      8 C           0.5478    0.1654    0.1923 C.ar    1  UNL1        0.0000
      9 C          -1.6595    1.3510    1.0265 C.ar    1  UNL1        0.0000
     10 C          -1.0746    2.3074    1.8876 C.ar    1  UNL1        0.0000
     11 C          -1.8606    3.2115    2.5952 C.ar    1  UNL1        0.0000
     12 C          -3.2380    3.1755    2.4550 C.ar    1  UNL1        0.0000
     13 C          -3.8328    2.2351    1.6068 C.ar    1  UNL1        0.0000
     14 C          -3.0813    1.2914    0.8627 C.ar    1  UNL1        0.0000
     15 C          -3.6792    0.3202   -0.0121 C.ar    1  UNL1        0.0000
     16 C          -5.1266    0.1973   -0.2320 C.ar    1  UNL1        0.0000
     17 C          -5.7910   -0.7331   -1.0773 C.ar    1  UNL1        0.0000
     18 C          -4.8673   -1.5502   -1.6997 C.ar    1  UNL1        0.0000
     19 C          -5.1315   -2.5619   -2.5824 C.ar    1  UNL1        0.0000
     20 O          -3.9549   -3.1360   -2.9778 O.2     1  UNL1        0.0000
     21 C          -2.9408   -2.4769   -2.3357 C.ar    1  UNL1        0.0000
     22 C          -3.4575   -1.4890   -1.5353 C.ar    1  UNL1        0.0000
     23 C          -2.7967   -0.5755   -0.7047 C.ar    1  UNL1        0.0000
     24 C           4.4154   -0.9271   -0.4296 C.ar    1  UNL1        0.0000
     25 S           5.0621   -2.2074   -1.4723 S.2     1  UNL1        0.0000
     26 C           6.7085   -1.8977   -1.0753 C.ar    1  UNL1        0.0000
     27 C           6.7276   -0.8792   -0.2031 C.ar    1  UNL1        0.0000
     28 O           7.8436   -0.3343    0.3524 O.2     1  UNL1        0.0000
     29 C           7.2603    0.6381    1.1368 C.ar    1  UNL1        0.0000
     30 C           5.8628    0.6749    1.0562 C.ar    1  UNL1        0.0000
     31 C           5.5070   -0.3509    0.1506 C.ar    1  UNL1        0.0000
     32 H           2.6403    2.0373    0.3189 H       1  UNL1        0.0000
     33 H           2.4901    0.4312    2.2060 H       1  UNL1        0.0000
     34 H           2.1726   -2.1944   -1.6871 H       1  UNL1        0.0000
     35 H          -0.0005    2.3649    2.0220 H       1  UNL1        0.0000
     36 H          -1.3970    3.9412    3.2537 H       1  UNL1        0.0000
     37 H          -3.8599    3.8782    3.0042 H       1  UNL1        0.0000
     38 H          -4.9167    2.2639    1.5452 H       1  UNL1        0.0000
     39 H          -5.7927    0.8796    0.2961 H       1  UNL1        0.0000
     40 H          -6.8641   -0.7726   -1.1964 H       1  UNL1        0.0000
     41 H          -6.0257   -2.9867   -3.0155 H       1  UNL1        0.0000
     42 H          -1.9458   -2.8341   -2.5607 H       1  UNL1        0.0000
     43 H           7.5430   -2.4506   -1.4808 H       1  UNL1        0.0000
     44 H           7.9692    1.2308    1.7005 H       1  UNL1        0.0000
     45 H           5.2345    1.3661    1.5968 H       1  UNL1        0.0000
@<TRIPOS>BOND
     1     1     2    1
     2     2     3    2
     3     3     4    1
     4     4     5   ar
     5     5     6   ar
     6     6     7   ar
     7     7     8   ar
     8     7     9   ar
     9     9    10   ar
    10    10    11   ar
    11    11    12   ar
    12    12    13   ar
    13    13    14   ar
    14    14    15   ar
    15    15    16   ar
    16    16    17   ar
    17    17    18   ar
    18    18    19   ar
    19    19    20   ar
    20    20    21   ar
    21    21    22   ar
    22    22    23   ar
    23     2    24    1
    24    24    25   ar
    25    25    26   ar
    26    26    27   ar
    27    27    28   ar
    28    28    29   ar
    29    29    30   ar
    30    30    31   ar
    31     8     1    1
    32    14     9   ar
    33    23    15   ar
    34    31    24   ar
    35     8     4   ar
    36    22    18   ar
    37    31    27   ar
    38    23     6   ar
    39     1    32    1
    40     1    33    1
    41     3    34    1
    42    10    35    1
    43    11    36    1
    44    12    37    1
    45    13    38    1
    46    16    39    1
    47    17    40    1
    48    19    41    1
    49    21    42    1
    50    26    43    1
    51    29    44    1
    52    30    45    1
