@<TRIPOS>MOLECULE
*****
 39 44 0 0 0
SMALL
GASTEIGER

@<TRIPOS>ATOM
      1 SI          1.6225   -2.9860    0.0170 Si      1  UNL1        0.0000
      2 C           3.5069   -3.3142    0.0675 C.2     1  UNL1        0.0000
      3 C           4.2093   -2.1621    0.1250 C.2     1  UNL1        0.0000
      4 C           3.4173   -0.9646    0.1458 C.ar    1  UNL1        0.0000
      5 C           2.0055   -1.1376    0.0934 C.ar    1  UNL1        0.0000
      6 C           1.2603    0.0094    0.1174 C.ar    1  UNL1        0.0000
      7 S           2.3515    1.3513    0.1494 S.2     1  UNL1        0.0000
      8 C           3.7727    0.3631    0.1916 C.ar    1  UNL1        0.0000
      9 C           5.0856    0.9417    0.2842 C.ar    1  UNL1        0.0000
     10 C           6.1205    0.5681    1.1229 C.ar    1  UNL1        0.0000
     11 N           7.2991    1.2808    0.9949 N.ar    1  UNL1        0.0000
     12 C           7.1435    2.1956    0.0643 C.ar    1  UNL1        0.0000
     13 S           5.6115    2.2487   -0.7010 S.2     1  UNL1        0.0000
     14 C          -0.1850    0.1928    0.0591 C.ar    1  UNL1        0.0000
     15 N          -0.8943   -0.7394   -0.6527 N.ar    1  UNL1        0.0000
     16 C          -2.2567   -0.6522   -0.7737 C.ar    1  UNL1        0.0000
     17 C          -3.1160    0.3080   -0.2233 C.ar    1  UNL1        0.0000
     18 C          -4.5661    0.3084   -0.4058 C.ar    1  UNL1        0.0000
     19 C          -5.2742    1.4534   -0.7938 C.ar    1  UNL1        0.0000
     20 C          -6.6560    1.4041   -0.9737 C.ar    1  UNL1        0.0000
     21 C          -7.3031    0.1998   -0.7646 C.ar    1  UNL1        0.0000
     22 N          -6.6696   -0.9313   -0.3942 N.ar    1  UNL1        0.0000
     23 C          -5.3285   -0.8474   -0.2204 C.ar    1  UNL1        0.0000
     24 C          -2.4209    1.2775    0.5498 C.ar    1  UNL1        0.0000
     25 N          -2.9723    2.3065    1.2202 N.ar    1  UNL1        0.0000
     26 S          -1.7435    3.1152    1.9761 S.2     1  UNL1        0.0000
     27 N          -0.4463    2.2109    1.4976 N.ar    1  UNL1        0.0000
     28 C          -0.9118    1.2263    0.7066 C.ar    1  UNL1        0.0000
     29 H           1.0626   -3.4630   -1.2722 H       1  UNL1        0.0000
     30 H           0.9739   -3.5211    1.2409 H       1  UNL1        0.0000
     31 H           3.8925   -4.3205    0.0357 H       1  UNL1        0.0000
     32 H           5.2931   -2.1414    0.1411 H       1  UNL1        0.0000
     33 H           6.0685   -0.2242    1.8602 H       1  UNL1        0.0000
     34 H           7.9353    2.8804   -0.2097 H       1  UNL1        0.0000
     35 H          -2.6707   -1.4486   -1.3954 H       1  UNL1        0.0000
     36 H          -4.7573    2.3963   -0.9607 H       1  UNL1        0.0000
     37 H          -7.2116    2.2870   -1.2697 H       1  UNL1        0.0000
     38 H          -8.3781    0.1106   -0.8921 H       1  UNL1        0.0000
     39 H          -4.8703   -1.7823    0.0946 H       1  UNL1        0.0000
@<TRIPOS>BOND
     1     1     2    1
     2     2     3    2
     3     3     4    1
     4     4     5   ar
     5     5     6   ar
     6     6     7   ar
     7     7     8   ar
     8     8     9    1
     9     9    10   ar
    10    10    11   ar
    11    11    12   ar
    12    12    13   ar
    13     6    14    1
    14    14    15   ar
    15    15    16   ar
    16    16    17   ar
    17    17    18    1
    18    18    19   ar
    19    19    20   ar
    20    20    21   ar
    21    21    22   ar
    22    22    23   ar
    23    17    24   ar
    24    24    25   ar
    25    25    26   ar
    26    26    27   ar
    27    27    28   ar
    28     5     1    1
    29    13     9   ar
    30    28    14   ar
    31     8     4   ar
    32    23    18   ar
    33    28    24   ar
    34     1    29    1
    35     1    30    1
    36     2    31    1
    37     3    32    1
    38    10    33    1
    39    12    34    1
    40    16    35    1
    41    19    36    1
    42    20    37    1
    43    21    38    1
    44    23    39    1
