@<TRIPOS>MOLECULE
*****
 33 37 0 0 0
SMALL
GASTEIGER

@<TRIPOS>ATOM
      1 SI          0.6711   -2.7156   -0.6695 Si      1  UNL1        0.0000
      2 C           2.4887   -3.1082   -1.0629 C.2     1  UNL1        0.0000
      3 C           3.2763   -2.0252   -0.8908 C.2     1  UNL1        0.0000
      4 C           2.5972   -0.8350   -0.4594 C.ar    1  UNL1        0.0000
      5 C           1.1862   -0.9429   -0.2641 C.ar    1  UNL1        0.0000
      6 C           0.5688    0.1893    0.1896 C.ar    1  UNL1        0.0000
      7 S           1.7681    1.4230    0.3896 S.2     1  UNL1        0.0000
      8 C           3.0689    0.4232   -0.1632 C.ar    1  UNL1        0.0000
      9 C           4.4020    0.9555   -0.2434 C.ar    1  UNL1        0.0000
     10 C           5.0846    1.7030    0.7004 C.ar    1  UNL1        0.0000
     11 N           6.3633    2.1026    0.3539 N.ar    1  UNL1        0.0000
     12 C           6.6314    1.6697   -0.8572 C.ar    1  UNL1        0.0000
     13 S           5.3965    0.7704   -1.6329 S.2     1  UNL1        0.0000
     14 C          -0.8105    0.4635    0.5074 C.ar    1  UNL1        0.0000
     15 N          -1.1585    1.2576    1.4986 N.ar    1  UNL1        0.0000
     16 C          -2.5354    1.3530    1.5618 C.ar    1  UNL1        0.0000
     17 C          -3.2426    0.6343    0.6160 C.ar    1  UNL1        0.0000
     18 S          -2.1202   -0.1869   -0.3935 S.2     1  UNL1        0.0000
     19 C          -4.6855    0.5327    0.4270 C.ar    1  UNL1        0.0000
     20 N          -5.4397    1.2374    1.2746 N.ar    1  UNL1        0.0000
     21 C          -6.7476    1.1154    1.0669 C.ar    1  UNL1        0.0000
     22 N          -7.3244    0.3763    0.1226 N.ar    1  UNL1        0.0000
     23 C          -6.4658   -0.2780   -0.6557 C.ar    1  UNL1        0.0000
     24 N          -5.1405   -0.2451   -0.5574 N.ar    1  UNL1        0.0000
     25 H          -0.1695   -2.8318   -1.8861 H       1  UNL1        0.0000
     26 H           0.1989   -3.4848    0.5075 H       1  UNL1        0.0000
     27 H           2.7918   -4.0955   -1.3727 H       1  UNL1        0.0000
     28 H           4.3477   -2.0560   -1.0523 H       1  UNL1        0.0000
     29 H           4.6960    1.9841    1.6725 H       1  UNL1        0.0000
     30 H           7.5775    1.8674   -1.3440 H       1  UNL1        0.0000
     31 H          -2.9829    1.9723    2.3311 H       1  UNL1        0.0000
     32 H          -7.4056    1.6692    1.7283 H       1  UNL1        0.0000
     33 H          -6.8864   -0.8951   -1.4426 H       1  UNL1        0.0000
@<TRIPOS>BOND
     1     1     2    1
     2     2     3    2
     3     3     4    1
     4     4     5   ar
     5     5     6   ar
     6     6     7   ar
     7     7     8   ar
     8     8     9    1
     9     9    10   ar
    10    10    11   ar
    11    11    12   ar
    12    12    13   ar
    13     6    14    1
    14    14    15   ar
    15    15    16   ar
    16    16    17   ar
    17    17    18   ar
    18    17    19    1
    19    19    20   ar
    20    20    21   ar
    21    21    22   ar
    22    22    23   ar
    23    23    24   ar
    24     5     1    1
    25    13     9   ar
    26    18    14   ar
    27    24    19   ar
    28     8     4   ar
    29     1    25    1
    30     1    26    1
    31     2    27    1
    32     3    28    1
    33    10    29    1
    34    12    30    1
    35    16    31    1
    36    21    32    1
    37    23    33    1
