@<TRIPOS>MOLECULE
*****
 35 39 0 0 0
SMALL
GASTEIGER

@<TRIPOS>ATOM
      1 SI         -0.8274   -1.5536    2.5937 Si      1  UNL1        0.0000
      2 C          -2.6914   -1.7406    2.9442 C.2     1  UNL1        0.0000
      3 C          -3.4406   -1.1644    1.9792 C.2     1  UNL1        0.0000
      4 C          -2.7004   -0.5501    0.9119 C.ar    1  UNL1        0.0000
      5 C          -1.2794   -0.6191    1.0144 C.ar    1  UNL1        0.0000
      6 C          -0.5897    0.0037    0.0162 C.ar    1  UNL1        0.0000
      7 S          -1.7170    0.6996   -1.0895 S.2     1  UNL1        0.0000
      8 C          -3.1056    0.1324   -0.2143 C.ar    1  UNL1        0.0000
      9 C          -4.4256    0.4157   -0.7148 C.ar    1  UNL1        0.0000
     10 N          -4.7600    1.5933   -1.2059 N.ar    1  UNL1        0.0000
     11 C          -6.0721    1.5711   -1.6342 C.ar    1  UNL1        0.0000
     12 C          -6.7288    0.3715   -1.4749 C.ar    1  UNL1        0.0000
     13 S          -5.6699   -0.7741   -0.7680 S.2     1  UNL1        0.0000
     14 C           0.8424    0.1413   -0.2195 C.ar    1  UNL1        0.0000
     15 C           1.4625    1.3907   -0.2614 C.ar    1  UNL1        0.0000
     16 C           2.8412    1.4773   -0.4676 C.ar    1  UNL1        0.0000
     17 C           3.5775    0.3045   -0.6285 C.ar    1  UNL1        0.0000
     18 N           2.9951   -0.9216   -0.5866 N.ar    1  UNL1        0.0000
     19 C           1.6557   -0.9733   -0.3912 C.ar    1  UNL1        0.0000
     20 C           5.0381    0.2943   -0.8365 C.ar    1  UNL1        0.0000
     21 N           5.8747   -0.6036   -0.3442 N.ar    1  UNL1        0.0000
     22 C           7.1651   -0.3347   -0.7503 C.ar    1  UNL1        0.0000
     23 C           7.3168    0.7733   -1.5517 C.ar    1  UNL1        0.0000
     24 S           5.7929    1.5066   -1.8150 S.2     1  UNL1        0.0000
     25 H          -0.1752   -0.7113    3.6258 H       1  UNL1        0.0000
     26 H          -0.1992   -2.8725    2.3367 H       1  UNL1        0.0000
     27 H          -3.0399   -2.2462    3.8306 H       1  UNL1        0.0000
     28 H          -4.5236   -1.1546    2.0190 H       1  UNL1        0.0000
     29 H          -6.5036    2.4678   -2.0622 H       1  UNL1        0.0000
     30 H          -7.7464    0.1202   -1.7365 H       1  UNL1        0.0000
     31 H           0.8833    2.3011   -0.1244 H       1  UNL1        0.0000
     32 H           3.3175    2.4521   -0.4822 H       1  UNL1        0.0000
     33 H           1.2438   -1.9795   -0.3824 H       1  UNL1        0.0000
     34 H           7.9665   -0.9889   -0.4291 H       1  UNL1        0.0000
     35 H           8.2225    1.1715   -1.9852 H       1  UNL1        0.0000
@<TRIPOS>BOND
     1     1     2    1
     2     2     3    2
     3     3     4    1
     4     4     5   ar
     5     5     6   ar
     6     6     7   ar
     7     7     8   ar
     8     8     9    1
     9     9    10   ar
    10    10    11   ar
    11    11    12   ar
    12    12    13   ar
    13     6    14    1
    14    14    15   ar
    15    15    16   ar
    16    16    17   ar
    17    17    18   ar
    18    18    19   ar
    19    17    20    1
    20    20    21   ar
    21    21    22   ar
    22    22    23   ar
    23    23    24   ar
    24     5     1    1
    25    13     9   ar
    26    19    14   ar
    27    24    20   ar
    28     8     4   ar
    29     1    25    1
    30     1    26    1
    31     2    27    1
    32     3    28    1
    33    11    29    1
    34    12    30    1
    35    15    31    1
    36    16    32    1
    37    19    33    1
    38    22    34    1
    39    23    35    1
