@<TRIPOS>MOLECULE
*****
 45 51 0 0 0
SMALL
GASTEIGER

@<TRIPOS>ATOM
      1 SI          4.2684    0.2960    2.5774 Si      1  UNL1        0.0000
      2 C           2.5432    0.9059    3.1133 C.2     1  UNL1        0.0000
      3 C           1.6410    0.7743    2.1165 C.2     1  UNL1        0.0000
      4 C           2.1539    0.2141    0.8975 C.ar    1  UNL1        0.0000
      5 C           3.5385   -0.1240    0.8916 C.ar    1  UNL1        0.0000
      6 C           4.0121   -0.6240   -0.2852 C.ar    1  UNL1        0.0000
      7 S           2.7175   -0.6860   -1.4253 S.2     1  UNL1        0.0000
      8 C           1.5515   -0.0494   -0.3114 C.ar    1  UNL1        0.0000
      9 C           0.1856    0.1269   -0.7156 C.ar    1  UNL1        0.0000
     10 S          -1.1526   -0.4954    0.2137 S.2     1  UNL1        0.0000
     11 C          -2.3476    0.1025   -0.8839 C.ar    1  UNL1        0.0000
     12 C          -3.7668   -0.0960   -0.7288 C.ar    1  UNL1        0.0000
     13 C          -4.6019   -0.6787   -1.7180 C.ar    1  UNL1        0.0000
     14 C          -6.0186   -0.8844   -1.5646 C.ar    1  UNL1        0.0000
     15 C          -6.7528   -0.5245   -0.4123 C.ar    1  UNL1        0.0000
     16 C          -5.9209    0.0566    0.5355 C.ar    1  UNL1        0.0000
     17 C          -6.3164    0.5387    1.7560 C.ar    1  UNL1        0.0000
     18 N          -5.1909    1.0485    2.3664 N.ar    1  UNL1        0.0000
     19 C          -4.0908    0.8982    1.5467 C.ar    1  UNL1        0.0000
     20 C          -4.5122    0.2653    0.4010 C.ar    1  UNL1        0.0000
     21 C          -1.7049    0.7004   -1.9069 C.ar    1  UNL1        0.0000
     22 O          -2.2636    1.2860   -3.0041 O.2     1  UNL1        0.0000
     23 C          -1.1195    1.7130   -3.6512 C.ar    1  UNL1        0.0000
     24 C           0.0696    1.4005   -2.9817 C.ar    1  UNL1        0.0000
     25 C          -0.3330    0.7189   -1.8179 C.ar    1  UNL1        0.0000
     26 C           5.3376   -1.0717   -0.6132 C.ar    1  UNL1        0.0000
     27 C           6.0836   -2.0195    0.0615 C.ar    1  UNL1        0.0000
     28 C           7.3717   -2.2148   -0.5184 C.ar    1  UNL1        0.0000
     29 C           7.5689   -1.4070   -1.6152 C.ar    1  UNL1        0.0000
     30 S           6.2085   -0.4235   -1.9402 S.2     1  UNL1        0.0000
     31 H           4.6813   -0.8942    3.3630 H       1  UNL1        0.0000
     32 H           5.2414    1.4160    2.5607 H       1  UNL1        0.0000
     33 H           2.3763    1.3030    4.1016 H       1  UNL1        0.0000
     34 H           0.6058    1.0773    2.2233 H       1  UNL1        0.0000
     35 H          -4.1498   -0.9969   -2.6587 H       1  UNL1        0.0000
     36 H          -6.5556   -1.3451   -2.3944 H       1  UNL1        0.0000
     37 H          -7.8169   -0.6792   -0.3095 H       1  UNL1        0.0000
     38 H          -7.2788    0.5789    2.2474 H       1  UNL1        0.0000
     39 H          -5.1746    1.4823    3.2801 H       1  UNL1        0.0000
     40 H          -3.1243    1.2622    1.8656 H       1  UNL1        0.0000
     41 H          -1.3113    2.2289   -4.5830 H       1  UNL1        0.0000
     42 H           1.0693    1.6429   -3.3127 H       1  UNL1        0.0000
     43 H           5.7199   -2.5623    0.9259 H       1  UNL1        0.0000
     44 H           8.1127   -2.9146   -0.1516 H       1  UNL1        0.0000
     45 H           8.4454   -1.3463   -2.2457 H       1  UNL1        0.0000
@<TRIPOS>BOND
     1     1     2    1
     2     2     3    2
     3     3     4    1
     4     4     5   ar
     5     5     6   ar
     6     6     7   ar
     7     7     8   ar
     8     8     9    1
     9     9    10   ar
    10    10    11   ar
    11    11    12    1
    12    12    13   ar
    13    13    14   ar
    14    14    15   ar
    15    15    16   ar
    16    16    17   ar
    17    17    18   ar
    18    18    19   ar
    19    19    20   ar
    20    11    21   ar
    21    21    22   ar
    22    22    23   ar
    23    23    24   ar
    24    24    25   ar
    25     6    26    1
    26    26    27   ar
    27    27    28   ar
    28    28    29   ar
    29    29    30   ar
    30     5     1    1
    31    25     9   ar
    32    30    26   ar
    33     8     4   ar
    34    20    12   ar
    35    25    21   ar
    36    20    16   ar
    37     1    31    1
    38     1    32    1
    39     2    33    1
    40     3    34    1
    41    13    35    1
    42    14    36    1
    43    15    37    1
    44    17    38    1
    45    18    39    1
    46    19    40    1
    47    23    41    1
    48    24    42    1
    49    27    43    1
    50    28    44    1
    51    29    45    1
