@<TRIPOS>MOLECULE
*****
 38 43 0 0 0
SMALL
GASTEIGER

@<TRIPOS>ATOM
      1 SI         -3.8868    1.8091   -1.0031 Si      1  UNL1        0.0000
      2 C          -2.3194    2.5438   -1.8013 C.2     1  UNL1        0.0000
      3 C          -1.2072    1.8982   -1.3878 C.2     1  UNL1        0.0000
      4 C          -1.4320    0.8262   -0.4587 C.ar    1  UNL1        0.0000
      5 C          -2.7857    0.5914   -0.0804 C.ar    1  UNL1        0.0000
      6 C          -2.9740   -0.4241    0.8098 C.ar    1  UNL1        0.0000
      7 S          -1.4403   -1.1120    1.2034 S.2     1  UNL1        0.0000
      8 C          -0.5601   -0.0372    0.1650 C.ar    1  UNL1        0.0000
      9 C           0.8632   -0.1354    0.0466 C.ar    1  UNL1        0.0000
     10 S           1.9616   -0.1893    1.3831 S.2     1  UNL1        0.0000
     11 C           3.3818   -0.2882    0.3736 C.ar    1  UNL1        0.0000
     12 C           4.6985   -0.3644    0.9395 C.ar    1  UNL1        0.0000
     13 C           5.9257   -0.4834    0.3035 C.ar    1  UNL1        0.0000
     14 C           6.9263   -0.5183    1.3059 C.ar    1  UNL1        0.0000
     15 C           6.2630   -0.4190    2.5021 C.ar    1  UNL1        0.0000
     16 O           4.9275   -0.3259    2.2949 O.2     1  UNL1        0.0000
     17 C           2.9595   -0.2772   -0.9139 C.ar    1  UNL1        0.0000
     18 C           3.4547   -0.3260   -2.2326 C.ar    1  UNL1        0.0000
     19 C           2.3232   -0.2704   -3.0541 C.ar    1  UNL1        0.0000
     20 O           1.1297   -0.1863   -2.3667 O.2     1  UNL1        0.0000
     21 C           1.5954   -0.1934   -1.0846 C.ar    1  UNL1        0.0000
     22 C          -4.1947   -0.8964    1.4031 C.ar    1  UNL1        0.0000
     23 C          -5.1235   -0.1458    2.0990 C.ar    1  UNL1        0.0000
     24 C          -6.2347   -0.9235    2.5396 C.ar    1  UNL1        0.0000
     25 C          -6.1198   -2.2424    2.1631 C.ar    1  UNL1        0.0000
     26 S          -4.6821   -2.5358    1.2852 S.2     1  UNL1        0.0000
     27 H          -4.7632    1.1916   -2.0289 H       1  UNL1        0.0000
     28 H          -4.5490    2.8025   -0.1200 H       1  UNL1        0.0000
     29 H          -2.3803    3.3688   -2.4925 H       1  UNL1        0.0000
     30 H          -0.2138    2.1641   -1.7310 H       1  UNL1        0.0000
     31 H           6.0880   -0.5415   -0.7625 H       1  UNL1        0.0000
     32 H           7.9952   -0.6059    1.1719 H       1  UNL1        0.0000
     33 H           6.5773   -0.4014    3.5364 H       1  UNL1        0.0000
     34 H           4.4759   -0.3954   -2.5764 H       1  UNL1        0.0000
     35 H           2.2080   -0.2824   -4.1303 H       1  UNL1        0.0000
     36 H          -5.0077    0.9128    2.2986 H       1  UNL1        0.0000
     37 H          -7.0716   -0.5355    3.1072 H       1  UNL1        0.0000
     38 H          -6.8087   -3.0519    2.3617 H       1  UNL1        0.0000
@<TRIPOS>BOND
     1     1     2    1
     2     2     3    2
     3     3     4    1
     4     4     5   ar
     5     5     6   ar
     6     6     7   ar
     7     7     8   ar
     8     8     9    1
     9     9    10   ar
    10    10    11   ar
    11    11    12    1
    12    12    13   ar
    13    13    14   ar
    14    14    15   ar
    15    15    16   ar
    16    11    17   ar
    17    17    18   ar
    18    18    19   ar
    19    19    20   ar
    20    20    21   ar
    21     6    22    1
    22    22    23   ar
    23    23    24   ar
    24    24    25   ar
    25    25    26   ar
    26     5     1    1
    27    21     9   ar
    28    26    22   ar
    29     8     4   ar
    30    16    12   ar
    31    21    17   ar
    32     1    27    1
    33     1    28    1
    34     2    29    1
    35     3    30    1
    36    13    31    1
    37    14    32    1
    38    15    33    1
    39    18    34    1
    40    19    35    1
    41    23    36    1
    42    24    37    1
    43    25    38    1
