@<TRIPOS>MOLECULE
*****
 42 48 0 0 0
SMALL
GASTEIGER

@<TRIPOS>ATOM
      1 SI          2.9946   -1.8438    2.1633 Si      1  UNL1        0.0000
      2 C           1.2632   -2.5965    2.4453 C.2     1  UNL1        0.0000
      3 C           0.3098   -1.8981    1.7909 C.2     1  UNL1        0.0000
      4 C           0.7858   -0.7680    1.0444 C.ar    1  UNL1        0.0000
      5 C           2.1891   -0.5290    1.0822 C.ar    1  UNL1        0.0000
      6 C           2.6102    0.5587    0.3776 C.ar    1  UNL1        0.0000
      7 S           1.2471    1.3172   -0.3580 S.2     1  UNL1        0.0000
      8 C           0.1195    0.1694    0.2891 C.ar    1  UNL1        0.0000
      9 C          -1.2881    0.2679    0.0022 C.ar    1  UNL1        0.0000
     10 S          -2.1754    1.6852    0.3951 S.2     1  UNL1        0.0000
     11 C          -3.6647    1.0535   -0.1996 C.ar    1  UNL1        0.0000
     12 C          -4.8632    1.8524   -0.1371 C.ar    1  UNL1        0.0000
     13 C          -6.1494    1.5568   -0.5669 C.ar    1  UNL1        0.0000
     14 C          -6.9691    2.6750   -0.2781 C.ar    1  UNL1        0.0000
     15 C          -6.1471    3.5993    0.3134 C.ar    1  UNL1        0.0000
     16 O          -4.8837    3.1187    0.4040 O.2     1  UNL1        0.0000
     17 C          -3.4833   -0.2246   -0.6873 C.ar    1  UNL1        0.0000
     18 N          -4.4817   -0.9893   -1.2260 N.ar    1  UNL1        0.0000
     19 C          -4.0177   -2.2016   -1.6287 C.ar    1  UNL1        0.0000
     20 C          -2.6950   -2.6352   -1.5130 C.ar    1  UNL1        0.0000
     21 N          -1.6804   -1.9077   -0.9800 N.ar    1  UNL1        0.0000
     22 C          -2.1118   -0.6780   -0.5669 C.ar    1  UNL1        0.0000
     23 C           3.9380    1.0610    0.1983 C.ar    1  UNL1        0.0000
     24 S           4.4344    2.5964    0.8081 S.2     1  UNL1        0.0000
     25 C           6.0508    2.4158    0.2344 C.ar    1  UNL1        0.0000
     26 C           6.1973    1.2172   -0.4032 C.ar    1  UNL1        0.0000
     27 S           7.6269    0.4703   -1.2031 S.2     1  UNL1        0.0000
     28 C           6.5391   -0.8663   -1.5569 C.ar    1  UNL1        0.0000
     29 C           5.2235   -0.7335   -1.0975 C.ar    1  UNL1        0.0000
     30 C           5.0079    0.4894   -0.4069 C.ar    1  UNL1        0.0000
     31 H           3.5599   -1.3294    3.4350 H       1  UNL1        0.0000
     32 H           3.8611   -2.7885    1.4141 H       1  UNL1        0.0000
     33 H           1.1311   -3.4731    3.0586 H       1  UNL1        0.0000
     34 H          -0.7400   -2.1673    1.8187 H       1  UNL1        0.0000
     35 H          -6.4627    0.6355   -1.0383 H       1  UNL1        0.0000
     36 H          -8.0249    2.7896   -0.4777 H       1  UNL1        0.0000
     37 H          -6.2971    4.5950    0.7066 H       1  UNL1        0.0000
     38 H          -4.7670   -2.8531   -2.0699 H       1  UNL1        0.0000
     39 H          -2.4120   -3.6237   -1.8640 H       1  UNL1        0.0000
     40 H           6.8059    3.1753    0.3823 H       1  UNL1        0.0000
     41 H           6.9501   -1.7011   -2.1084 H       1  UNL1        0.0000
     42 H           4.4689   -1.4918   -1.2698 H       1  UNL1        0.0000
@<TRIPOS>BOND
     1     1     2    1
     2     2     3    2
     3     3     4    1
     4     4     5   ar
     5     5     6   ar
     6     6     7   ar
     7     7     8   ar
     8     8     9    1
     9     9    10   ar
    10    10    11   ar
    11    11    12    1
    12    12    13   ar
    13    13    14   ar
    14    14    15   ar
    15    15    16   ar
    16    11    17   ar
    17    17    18   ar
    18    18    19   ar
    19    19    20   ar
    20    20    21   ar
    21    21    22   ar
    22     6    23    1
    23    23    24   ar
    24    24    25   ar
    25    25    26   ar
    26    26    27   ar
    27    27    28   ar
    28    28    29   ar
    29    29    30   ar
    30     5     1    1
    31    22     9   ar
    32    30    23   ar
    33     8     4   ar
    34    16    12   ar
    35    22    17   ar
    36    30    26   ar
    37     1    31    1
    38     1    32    1
    39     2    33    1
    40     3    34    1
    41    13    35    1
    42    14    36    1
    43    15    37    1
    44    19    38    1
    45    20    39    1
    46    25    40    1
    47    28    41    1
    48    29    42    1
