@<TRIPOS>MOLECULE
*****
 44 50 0 0 0
SMALL
GASTEIGER

@<TRIPOS>ATOM
      1 SI         -2.4223    2.9873   -0.9519 Si      1  UNL1        0.0000
      2 C          -0.6275    3.6315   -1.0628 C.2     1  UNL1        0.0000
      3 C           0.2662    2.6568   -0.7864 C.2     1  UNL1        0.0000
      4 C          -0.3039    1.3764   -0.4743 C.ar    1  UNL1        0.0000
      5 C          -1.7253    1.2959   -0.4969 C.ar    1  UNL1        0.0000
      6 C          -2.2421    0.0657   -0.2196 C.ar    1  UNL1        0.0000
      7 S          -0.9475   -1.0347    0.0738 S.2     1  UNL1        0.0000
      8 C           0.2785    0.1680   -0.1668 C.ar    1  UNL1        0.0000
      9 C           1.6626   -0.1609   -0.0218 C.ar    1  UNL1        0.0000
     10 S           2.7574    0.6712    1.0279 S.2     1  UNL1        0.0000
     11 C           4.1223   -0.3364    0.6113 C.ar    1  UNL1        0.0000
     12 C           5.4321   -0.1731    1.1881 C.ar    1  UNL1        0.0000
     13 C           6.3551   -1.1718    1.4447 C.ar    1  UNL1        0.0000
     14 C           7.5673   -0.6752    2.0086 C.ar    1  UNL1        0.0000
     15 C           7.5379    0.6911    2.1637 C.ar    1  UNL1        0.0000
     16 S           6.0597    1.3630    1.6338 S.2     1  UNL1        0.0000
     17 C           3.6797   -1.2454   -0.2922 C.ar    1  UNL1        0.0000
     18 C           4.1453   -2.3210   -1.0737 C.ar    1  UNL1        0.0000
     19 C           3.0309   -2.7554   -1.8004 C.ar    1  UNL1        0.0000
     20 O           1.8781   -2.0373   -1.5514 O.2     1  UNL1        0.0000
     21 C           2.3502   -1.1470   -0.6325 C.ar    1  UNL1        0.0000
     22 C          -3.6084   -0.4001   -0.1528 C.ar    1  UNL1        0.0000
     23 C          -4.2146   -1.2819   -1.0809 C.ar    1  UNL1        0.0000
     24 C          -5.5887   -1.7119   -1.0022 C.ar    1  UNL1        0.0000
     25 C          -6.4959   -1.3085    0.0072 C.ar    1  UNL1        0.0000
     26 C          -5.8715   -0.4502    0.9025 C.ar    1  UNL1        0.0000
     27 C          -6.4248    0.1347    2.0093 C.ar    1  UNL1        0.0000
     28 O          -5.4814    0.9021    2.6382 O.2     1  UNL1        0.0000
     29 C          -4.3183    0.7981    1.9225 C.ar    1  UNL1        0.0000
     30 C          -4.5144   -0.0162    0.8367 C.ar    1  UNL1        0.0000
     31 H          -3.0820    3.0393   -2.2803 H       1  UNL1        0.0000
     32 H          -3.1487    3.6576    0.1550 H       1  UNL1        0.0000
     33 H          -0.4219    4.6571   -1.3237 H       1  UNL1        0.0000
     34 H           1.3371    2.8235   -0.8062 H       1  UNL1        0.0000
     35 H           6.1709   -2.2215    1.2511 H       1  UNL1        0.0000
     36 H           8.4142   -1.2899    2.2879 H       1  UNL1        0.0000
     37 H           8.3128    1.3302    2.5645 H       1  UNL1        0.0000
     38 H           5.1400   -2.7382   -1.1317 H       1  UNL1        0.0000
     39 H           2.9035   -3.5477   -2.5268 H       1  UNL1        0.0000
     40 H          -3.6138   -1.6598   -1.9097 H       1  UNL1        0.0000
     41 H          -5.9485   -2.3944   -1.7739 H       1  UNL1        0.0000
     42 H          -7.5230   -1.6407    0.0557 H       1  UNL1        0.0000
     43 H          -7.3991    0.1196    2.4765 H       1  UNL1        0.0000
     44 H          -3.4782    1.3496    2.3211 H       1  UNL1        0.0000
@<TRIPOS>BOND
     1     1     2    1
     2     2     3    2
     3     3     4    1
     4     4     5   ar
     5     5     6   ar
     6     6     7   ar
     7     7     8   ar
     8     8     9    1
     9     9    10   ar
    10    10    11   ar
    11    11    12    1
    12    12    13   ar
    13    13    14   ar
    14    14    15   ar
    15    15    16   ar
    16    11    17   ar
    17    17    18   ar
    18    18    19   ar
    19    19    20   ar
    20    20    21   ar
    21     6    22    1
    22    22    23   ar
    23    23    24   ar
    24    24    25   ar
    25    25    26   ar
    26    26    27   ar
    27    27    28   ar
    28    28    29   ar
    29    29    30   ar
    30     5     1    1
    31    21     9   ar
    32    30    22   ar
    33     8     4   ar
    34    16    12   ar
    35    21    17   ar
    36    30    26   ar
    37     1    31    1
    38     1    32    1
    39     2    33    1
    40     3    34    1
    41    13    35    1
    42    14    36    1
    43    15    37    1
    44    18    38    1
    45    19    39    1
    46    23    40    1
    47    24    41    1
    48    25    42    1
    49    27    43    1
    50    29    44    1
