@<TRIPOS>MOLECULE
*****
 44 50 0 0 0
SMALL
GASTEIGER

@<TRIPOS>ATOM
      1 SI          2.7781   -2.4215    1.1708 Si      1  UNL1        0.0000
      2 C           1.0959   -3.1106    1.7679 C.2     1  UNL1        0.0000
      3 C           0.0807   -2.2754    1.4570 C.2     1  UNL1        0.0000
      4 C           0.4679   -1.0770    0.7689 C.ar    1  UNL1        0.0000
      5 C           1.8544   -0.9268    0.4863 C.ar    1  UNL1        0.0000
      6 C           2.1906    0.2156   -0.1774 C.ar    1  UNL1        0.0000
      7 S           0.7637    1.1445   -0.4578 S.2     1  UNL1        0.0000
      8 C          -0.2717   -0.0128    0.3089 C.ar    1  UNL1        0.0000
      9 C          -1.6826    0.2170    0.4229 C.ar    1  UNL1        0.0000
     10 S          -2.7012    0.4160   -0.9511 S.2     1  UNL1        0.0000
     11 C          -4.1312    0.6018   -0.0022 C.ar    1  UNL1        0.0000
     12 C          -5.4363    0.7979   -0.5686 C.ar    1  UNL1        0.0000
     13 C          -6.5990    0.1187   -0.2533 C.ar    1  UNL1        0.0000
     14 C          -7.7232    0.5739   -1.0034 C.ar    1  UNL1        0.0000
     15 C          -7.3852    1.5874   -1.8703 C.ar    1  UNL1        0.0000
     16 S          -5.7251    1.9824   -1.7777 S.2     1  UNL1        0.0000
     17 C          -3.8279    0.5165    1.3325 C.ar    1  UNL1        0.0000
     18 S          -4.8476    0.6456    2.8255 S.2     1  UNL1        0.0000
     19 C          -3.3456    0.4004    3.7007 C.ar    1  UNL1        0.0000
     20 C          -2.1946    0.2409    2.9233 C.ar    1  UNL1        0.0000
     21 C          -2.4613    0.3017    1.5292 C.ar    1  UNL1        0.0000
     22 C           3.4693    0.7101   -0.6339 C.ar    1  UNL1        0.0000
     23 C           4.1552    1.8224   -0.0874 C.ar    1  UNL1        0.0000
     24 C           5.4428    2.2789   -0.5487 C.ar    1  UNL1        0.0000
     25 C           6.1759    1.6754   -1.5989 C.ar    1  UNL1        0.0000
     26 C           5.4762    0.5932   -2.1161 C.ar    1  UNL1        0.0000
     27 C           5.8617   -0.2256   -3.1428 C.ar    1  UNL1        0.0000
     28 O           4.8922   -1.1670   -3.3626 O.2     1  UNL1        0.0000
     29 C           3.8813   -0.9377   -2.4675 C.ar    1  UNL1        0.0000
     30 C           4.2030    0.1304   -1.6699 C.ar    1  UNL1        0.0000
     31 H           3.6557   -2.1164    2.3280 H       1  UNL1        0.0000
     32 H           3.3596   -3.3028    0.1286 H       1  UNL1        0.0000
     33 H           1.0365   -4.0603    2.2748 H       1  UNL1        0.0000
     34 H          -0.9537   -2.4925    1.6994 H       1  UNL1        0.0000
     35 H          -6.6469   -0.6776    0.4800 H       1  UNL1        0.0000
     36 H          -8.7264    0.1763   -0.9112 H       1  UNL1        0.0000
     37 H          -8.0319    2.1169   -2.5564 H       1  UNL1        0.0000
     38 H          -3.4013    0.3943    4.7810 H       1  UNL1        0.0000
     39 H          -1.2142    0.0949    3.3615 H       1  UNL1        0.0000
     40 H           3.6903    2.3701    0.7337 H       1  UNL1        0.0000
     41 H           5.8771    3.1488   -0.0530 H       1  UNL1        0.0000
     42 H           7.1392    2.0298   -1.9367 H       1  UNL1        0.0000
     43 H           6.7238   -0.2852   -3.7917 H       1  UNL1        0.0000
     44 H           3.0360   -1.6075   -2.5423 H       1  UNL1        0.0000
@<TRIPOS>BOND
     1     1     2    1
     2     2     3    2
     3     3     4    1
     4     4     5   ar
     5     5     6   ar
     6     6     7   ar
     7     7     8   ar
     8     8     9    1
     9     9    10   ar
    10    10    11   ar
    11    11    12    1
    12    12    13   ar
    13    13    14   ar
    14    14    15   ar
    15    15    16   ar
    16    11    17   ar
    17    17    18   ar
    18    18    19   ar
    19    19    20   ar
    20    20    21   ar
    21     6    22    1
    22    22    23   ar
    23    23    24   ar
    24    24    25   ar
    25    25    26   ar
    26    26    27   ar
    27    27    28   ar
    28    28    29   ar
    29    29    30   ar
    30     5     1    1
    31    21     9   ar
    32    30    22   ar
    33     8     4   ar
    34    16    12   ar
    35    21    17   ar
    36    30    26   ar
    37     1    31    1
    38     1    32    1
    39     2    33    1
    40     3    34    1
    41    13    35    1
    42    14    36    1
    43    15    37    1
    44    19    38    1
    45    20    39    1
    46    23    40    1
    47    24    41    1
    48    25    42    1
    49    27    43    1
    50    29    44    1
