@<TRIPOS>MOLECULE
*****
 45 51 0 0 0
SMALL
GASTEIGER

@<TRIPOS>ATOM
      1 SI         -3.5065   -3.0610   -0.0792 Si      1  UNL1        0.0000
      2 C          -1.8440   -3.7195   -0.7591 C.2     1  UNL1        0.0000
      3 C          -0.8925   -2.7606   -0.7490 C.2     1  UNL1        0.0000
      4 C          -1.3175   -1.4873   -0.2410 C.ar    1  UNL1        0.0000
      5 C          -2.6726   -1.3928    0.1840 C.ar    1  UNL1        0.0000
      6 C          -3.0550   -0.1668    0.6436 C.ar    1  UNL1        0.0000
      7 S          -1.7058    0.9097    0.5568 S.2     1  UNL1        0.0000
      8 C          -0.6475   -0.2960   -0.0937 C.ar    1  UNL1        0.0000
      9 C           0.7232    0.0182   -0.3870 C.ar    1  UNL1        0.0000
     10 S           1.9989   -0.7248    0.4992 S.2     1  UNL1        0.0000
     11 C           3.2171    0.1295   -0.3566 C.ar    1  UNL1        0.0000
     12 C           4.6083   -0.0747   -0.0101 C.ar    1  UNL1        0.0000
     13 C           5.3517   -1.2100   -0.3403 C.ar    1  UNL1        0.0000
     14 N           6.6732   -1.4523   -0.0521 N.ar    1  UNL1        0.0000
     15 C           7.4200   -0.5279    0.6227 C.ar    1  UNL1        0.0000
     16 C           6.7968    0.6733    1.0189 C.ar    1  UNL1        0.0000
     17 N           7.3669    1.6885    1.6882 N.ar    1  UNL1        0.0000
     18 S           6.1834    2.8355    1.8923 S.2     1  UNL1        0.0000
     19 N           4.8978    2.0909    1.1559 N.ar    1  UNL1        0.0000
     20 C           5.3438    0.9079    0.6940 C.ar    1  UNL1        0.0000
     21 C           2.6655    0.9473   -1.3154 C.ar    1  UNL1        0.0000
     22 N           3.4105    1.7137   -2.1645 N.ar    1  UNL1        0.0000
     23 C           2.6100    2.4239   -3.0047 C.ar    1  UNL1        0.0000
     24 C           1.2118    2.3727   -3.0212 C.ar    1  UNL1        0.0000
     25 N           0.4464    1.6050   -2.2003 N.ar    1  UNL1        0.0000
     26 C           1.2211    0.8894   -1.3318 C.ar    1  UNL1        0.0000
     27 C          -4.3361    0.3035    1.1636 C.ar    1  UNL1        0.0000
     28 C          -5.0517    1.3108    0.5028 C.ar    1  UNL1        0.0000
     29 C          -6.2852    1.7426    0.9953 C.ar    1  UNL1        0.0000
     30 C          -6.8141    1.1706    2.1511 C.ar    1  UNL1        0.0000
     31 C          -6.1108    0.1680    2.8167 C.ar    1  UNL1        0.0000
     32 C          -4.8772   -0.2646    2.3248 C.ar    1  UNL1        0.0000
     33 H          -3.8692   -3.7603    1.1794 H       1  UNL1        0.0000
     34 H          -4.5434   -3.0740   -1.1408 H       1  UNL1        0.0000
     35 H          -1.7499   -4.7383   -1.0981 H       1  UNL1        0.0000
     36 H           0.1170   -2.9322   -1.1040 H       1  UNL1        0.0000
     37 H           4.8791   -2.0224   -0.8928 H       1  UNL1        0.0000
     38 H           8.4568   -0.7636    0.8227 H       1  UNL1        0.0000
     39 H           3.1391    3.0681   -3.7015 H       1  UNL1        0.0000
     40 H           0.6527    2.9767   -3.7305 H       1  UNL1        0.0000
     41 H          -4.6534    1.7621   -0.4034 H       1  UNL1        0.0000
     42 H          -6.8316    2.5256    0.4759 H       1  UNL1        0.0000
     43 H          -7.7732    1.5088    2.5349 H       1  UNL1        0.0000
     44 H          -6.5195   -0.2742    3.7214 H       1  UNL1        0.0000
     45 H          -4.3341   -1.0390    2.8618 H       1  UNL1        0.0000
@<TRIPOS>BOND
     1     1     2    1
     2     2     3    2
     3     3     4    1
     4     4     5   ar
     5     5     6   ar
     6     6     7   ar
     7     7     8   ar
     8     8     9    1
     9     9    10   ar
    10    10    11   ar
    11    11    12    1
    12    12    13   ar
    13    13    14   ar
    14    14    15   ar
    15    15    16   ar
    16    16    17   ar
    17    17    18   ar
    18    18    19   ar
    19    19    20   ar
    20    11    21   ar
    21    21    22   ar
    22    22    23   ar
    23    23    24   ar
    24    24    25   ar
    25    25    26   ar
    26     6    27    1
    27    27    28   ar
    28    28    29   ar
    29    29    30   ar
    30    30    31   ar
    31    31    32   ar
    32     5     1    1
    33    26     9   ar
    34    32    27   ar
    35     8     4   ar
    36    20    12   ar
    37    26    21   ar
    38    20    16   ar
    39     1    33    1
    40     1    34    1
    41     2    35    1
    42     3    36    1
    43    13    37    1
    44    15    38    1
    45    23    39    1
    46    24    40    1
    47    28    41    1
    48    29    42    1
    49    30    43    1
    50    31    44    1
    51    32    45    1
