@<TRIPOS>MOLECULE
*****
 44 50 0 0 0
SMALL
GASTEIGER

@<TRIPOS>ATOM
      1 SI          4.6137    1.4142   -1.6079 Si      1  UNL1        0.0000
      2 C           3.1090    2.4359   -2.1772 C.2     1  UNL1        0.0000
      3 C           1.9533    1.9075   -1.7200 C.2     1  UNL1        0.0000
      4 C           2.1012    0.7311   -0.9106 C.ar    1  UNL1        0.0000
      5 C           3.4311    0.2701   -0.6862 C.ar    1  UNL1        0.0000
      6 C           3.5317   -0.8573    0.0752 C.ar    1  UNL1        0.0000
      7 S           1.9429   -1.3859    0.5051 S.2     1  UNL1        0.0000
      8 C           1.1648   -0.0738   -0.3068 C.ar    1  UNL1        0.0000
      9 C          -0.2574    0.0683   -0.2813 C.ar    1  UNL1        0.0000
     10 S          -1.3619   -1.0753   -0.9665 S.2     1  UNL1        0.0000
     11 C          -2.7731   -0.1479   -0.5392 C.ar    1  UNL1        0.0000
     12 C          -4.1010   -0.5861   -0.8295 C.ar    1  UNL1        0.0000
     13 S          -4.6252   -1.1465   -2.3882 S.2     1  UNL1        0.0000
     14 C          -6.2652   -1.4042   -1.8701 C.ar    1  UNL1        0.0000
     15 C          -6.3351   -1.0715   -0.5658 C.ar    1  UNL1        0.0000
     16 C          -7.2539   -1.0175    0.5101 C.ar    1  UNL1        0.0000
     17 C          -6.5429   -0.5528    1.6373 C.ar    1  UNL1        0.0000
     18 N          -5.2048   -0.3063    1.3356 N.ar    1  UNL1        0.0000
     19 C          -5.1632   -0.6295    0.0077 C.ar    1  UNL1        0.0000
     20 C          -2.3409    0.9694    0.0905 C.ar    1  UNL1        0.0000
     21 C          -2.8180    2.1645    0.6930 C.ar    1  UNL1        0.0000
     22 C          -1.6921    2.8755    1.1593 C.ar    1  UNL1        0.0000
     23 N          -0.5066    2.2008    0.8786 N.ar    1  UNL1        0.0000
     24 C          -0.9757    1.0888    0.2368 C.ar    1  UNL1        0.0000
     25 C           4.6934   -1.5746    0.5071 C.ar    1  UNL1        0.0000
     26 C           4.9336   -2.9355    0.5477 C.ar    1  UNL1        0.0000
     27 C           6.2392   -3.1320    1.0611 C.ar    1  UNL1        0.0000
     28 C           6.7606   -1.8889    1.3362 C.ar    1  UNL1        0.0000
     29 N           5.8145   -0.9535    1.0059 N.ar    1  UNL1        0.0000
     30 H           5.4839    2.1882   -0.6857 H       1  UNL1        0.0000
     31 H           5.3063    0.7903   -2.7607 H       1  UNL1        0.0000
     32 H           3.2304    3.3031   -2.8065 H       1  UNL1        0.0000
     33 H           0.9808    2.3260   -1.9570 H       1  UNL1        0.0000
     34 H          -7.0215   -1.7753   -2.5459 H       1  UNL1        0.0000
     35 H          -8.3029   -1.2823    0.4984 H       1  UNL1        0.0000
     36 H          -6.8903   -0.3819    2.6482 H       1  UNL1        0.0000
     37 H          -4.4416    0.0163    1.9193 H       1  UNL1        0.0000
     38 H          -3.8452    2.4947    0.7816 H       1  UNL1        0.0000
     39 H          -1.6430    3.8281    1.6717 H       1  UNL1        0.0000
     40 H           0.4583    2.4398    1.0769 H       1  UNL1        0.0000
     41 H           4.2439   -3.7082    0.2319 H       1  UNL1        0.0000
     42 H           6.7391   -4.0792    1.2177 H       1  UNL1        0.0000
     43 H           7.7163   -1.5904    1.7458 H       1  UNL1        0.0000
     44 H           5.9134    0.0436    1.1382 H       1  UNL1        0.0000
@<TRIPOS>BOND
     1     1     2    1
     2     2     3    2
     3     3     4    1
     4     4     5   ar
     5     5     6   ar
     6     6     7   ar
     7     7     8   ar
     8     8     9    1
     9     9    10   ar
    10    10    11   ar
    11    11    12    1
    12    12    13   ar
    13    13    14   ar
    14    14    15   ar
    15    15    16   ar
    16    16    17   ar
    17    17    18   ar
    18    18    19   ar
    19    11    20   ar
    20    20    21   ar
    21    21    22   ar
    22    22    23   ar
    23    23    24   ar
    24     6    25    1
    25    25    26   ar
    26    26    27   ar
    27    27    28   ar
    28    28    29   ar
    29     5     1    1
    30    24     9   ar
    31    29    25   ar
    32     8     4   ar
    33    19    12   ar
    34    24    20   ar
    35    19    15   ar
    36     1    30    1
    37     1    31    1
    38     2    32    1
    39     3    33    1
    40    14    34    1
    41    16    35    1
    42    17    36    1
    43    18    37    1
    44    21    38    1
    45    22    39    1
    46    23    40    1
    47    26    41    1
    48    27    42    1
    49    28    43    1
    50    29    44    1
