@<TRIPOS>MOLECULE
*****
 40 46 0 0 0
SMALL
GASTEIGER

@<TRIPOS>ATOM
      1 SI          1.8757    2.1975   -0.6444 Si      1  UNL1        0.0000
      2 C           2.5996    0.6788    0.3021 C.2     1  UNL1        0.0000
      3 C           1.6315   -0.1853    0.6867 C.2     1  UNL1        0.0000
      4 C           0.3464    0.2624    0.2745 C.ar    1  UNL1        0.0000
      5 O          -0.8857   -0.2962    0.4383 O.2     1  UNL1        0.0000
      6 C          -1.7917    0.5492   -0.1577 C.ar    1  UNL1        0.0000
      7 C          -1.1470    1.6580   -0.7120 C.ar    1  UNL1        0.0000
      8 C          -1.9232    2.6171   -1.3590 C.ar    1  UNL1        0.0000
      9 N          -3.2738    2.4716   -1.4472 N.ar    1  UNL1        0.0000
     10 C          -3.8973    1.4055   -0.9140 C.ar    1  UNL1        0.0000
     11 C          -5.3159    1.3109   -1.0388 C.ar    1  UNL1        0.0000
     12 C          -6.1406    0.2632   -0.5412 C.ar    1  UNL1        0.0000
     13 C          -5.3725   -0.6927    0.1052 C.ar    1  UNL1        0.0000
     14 C          -5.8337   -1.8347    0.7049 C.ar    1  UNL1        0.0000
     15 N          -4.7319   -2.4863    1.2204 N.ar    1  UNL1        0.0000
     16 C          -3.5832   -1.7699    0.9519 C.ar    1  UNL1        0.0000
     17 C          -3.9576   -0.6468    0.2572 C.ar    1  UNL1        0.0000
     18 C          -3.1647    0.3893   -0.2383 C.ar    1  UNL1        0.0000
     19 C           0.1947    1.4454   -0.4224 C.ar    1  UNL1        0.0000
     20 C           3.9765    0.5180    0.5394 C.ar    1  UNL1        0.0000
     21 S           4.9849    1.6975    1.3271 S.2     1  UNL1        0.0000
     22 C           6.4146    0.7156    1.2235 C.ar    1  UNL1        0.0000
     23 C           6.0738   -0.4327    0.6062 C.ar    1  UNL1        0.0000
     24 C           6.6363   -1.6557    0.1685 C.ar    1  UNL1        0.0000
     25 C           5.5974   -2.3944   -0.4367 C.ar    1  UNL1        0.0000
     26 N           4.3889   -1.7008   -0.4082 N.ar    1  UNL1        0.0000
     27 C           4.7531   -0.5482    0.2315 C.ar    1  UNL1        0.0000
     28 H           2.0592    3.4682    0.1016 H       1  UNL1        0.0000
     29 H           2.3266    2.2239   -2.0594 H       1  UNL1        0.0000
     30 H           1.7750   -1.1014    1.2435 H       1  UNL1        0.0000
     31 H          -1.5114    3.5091   -1.8175 H       1  UNL1        0.0000
     32 H          -5.8126    2.1259   -1.5690 H       1  UNL1        0.0000
     33 H          -7.2136    0.2417   -0.6636 H       1  UNL1        0.0000
     34 H          -6.8254   -2.2505    0.8200 H       1  UNL1        0.0000
     35 H          -4.7606   -3.3631    1.7244 H       1  UNL1        0.0000
     36 H          -2.6196   -2.1322    1.2843 H       1  UNL1        0.0000
     37 H           7.3647    1.0529    1.6111 H       1  UNL1        0.0000
     38 H           7.6629   -1.9839    0.2640 H       1  UNL1        0.0000
     39 H           5.6265   -3.3748   -0.8949 H       1  UNL1        0.0000
     40 H           3.4738   -1.9523   -0.7619 H       1  UNL1        0.0000
@<TRIPOS>BOND
     1     1     2    1
     2     2     3    2
     3     3     4    1
     4     4     5   ar
     5     5     6   ar
     6     6     7   ar
     7     7     8   ar
     8     8     9   ar
     9     9    10   ar
    10    10    11   ar
    11    11    12   ar
    12    12    13   ar
    13    13    14   ar
    14    14    15   ar
    15    15    16   ar
    16    16    17   ar
    17    17    18   ar
    18     7    19   ar
    19     2    20    1
    20    20    21   ar
    21    21    22   ar
    22    22    23   ar
    23    23    24   ar
    24    24    25   ar
    25    25    26   ar
    26    26    27   ar
    27    19     1    1
    28    27    20   ar
    29    19     4   ar
    30    27    23   ar
    31    18     6   ar
    32    18    10   ar
    33    17    13   ar
    34     1    28    1
    35     1    29    1
    36     3    30    1
    37     8    31    1
    38    11    32    1
    39    12    33    1
    40    14    34    1
    41    15    35    1
    42    16    36    1
    43    22    37    1
    44    24    38    1
    45    25    39    1
    46    26    40    1
