@<TRIPOS>MOLECULE
*****
 45 52 0 0 0
SMALL
GASTEIGER

@<TRIPOS>ATOM
      1 SI         -3.8131   -2.6341    2.1973 Si      1  UNL1        0.0000
      2 C          -2.0939   -3.1411    2.8503 C.2     1  UNL1        0.0000
      3 C          -1.1105   -2.4522    2.2327 C.2     1  UNL1        0.0000
      4 C          -1.5551   -1.5106    1.2449 C.ar    1  UNL1        0.0000
      5 C          -2.9619   -1.4158    1.0326 C.ar    1  UNL1        0.0000
      6 C          -3.3492   -0.4893    0.1069 C.ar    1  UNL1        0.0000
      7 S          -1.9354    0.2846   -0.5268 S.2     1  UNL1        0.0000
      8 C          -0.8514   -0.6409    0.4481 C.ar    1  UNL1        0.0000
      9 C           0.5628   -0.4495    0.3549 C.ar    1  UNL1        0.0000
     10 S           1.3560    0.9932    0.8573 S.2     1  UNL1        0.0000
     11 C           2.9202    0.4045    0.4351 C.ar    1  UNL1        0.0000
     12 C           4.1005    1.1908    0.5973 C.ar    1  UNL1        0.0000
     13 S           4.6234    1.8583    2.1119 S.2     1  UNL1        0.0000
     14 C           6.0606    2.5642    1.4317 C.ar    1  UNL1        0.0000
     15 C           6.0706    2.2749    0.1150 C.ar    1  UNL1        0.0000
     16 C           6.8410    2.4835   -1.0543 C.ar    1  UNL1        0.0000
     17 C           6.1606    1.8491   -2.1158 C.ar    1  UNL1        0.0000
     18 N           4.9831    1.2419   -1.6830 N.ar    1  UNL1        0.0000
     19 C           5.0064    1.5324   -0.3472 C.ar    1  UNL1        0.0000
     20 C           2.7703   -0.8513   -0.0555 C.ar    1  UNL1        0.0000
     21 C           3.6745   -1.8379   -0.5342 C.ar    1  UNL1        0.0000
     22 C           3.0280   -3.0087   -0.9440 C.ar    1  UNL1        0.0000
     23 S           1.2787   -3.0287   -0.7860 S.2     1  UNL1        0.0000
     24 C           1.4704   -1.3586   -0.1176 C.ar    1  UNL1        0.0000
     25 C          -4.6580   -0.1213   -0.3535 C.ar    1  UNL1        0.0000
     26 S          -5.8734   -1.3034   -0.7742 S.2     1  UNL1        0.0000
     27 C          -7.0523   -0.1131   -1.2155 C.ar    1  UNL1        0.0000
     28 C          -6.4925    1.0959   -1.0360 C.ar    1  UNL1        0.0000
     29 O          -7.0831    2.2995   -1.2662 O.2     1  UNL1        0.0000
     30 C          -6.0448    3.1390   -0.9062 C.ar    1  UNL1        0.0000
     31 C          -4.8891    2.4721   -0.4797 C.ar    1  UNL1        0.0000
     32 C          -5.1992    1.1015   -0.5737 C.ar    1  UNL1        0.0000
     33 H          -4.4679   -3.7776    1.5151 H       1  UNL1        0.0000
     34 H          -4.6117   -1.9876    3.2680 H       1  UNL1        0.0000
     35 H          -1.9897   -3.8903    3.6185 H       1  UNL1        0.0000
     36 H          -0.0605   -2.5919    2.4647 H       1  UNL1        0.0000
     37 H           6.7586    3.1236    2.0373 H       1  UNL1        0.0000
     38 H           7.7725    3.0265   -1.1450 H       1  UNL1        0.0000
     39 H           6.4251    1.7883   -3.1640 H       1  UNL1        0.0000
     40 H           4.2768    0.7271   -2.1957 H       1  UNL1        0.0000
     41 H           4.7517   -1.7256   -0.5796 H       1  UNL1        0.0000
     42 H           3.4949   -3.8994   -1.3428 H       1  UNL1        0.0000
     43 H          -8.0452   -0.3506   -1.5680 H       1  UNL1        0.0000
     44 H          -6.2782    4.1911   -1.0054 H       1  UNL1        0.0000
     45 H          -3.9705    2.9379   -0.1526 H       1  UNL1        0.0000
@<TRIPOS>BOND
     1     1     2    1
     2     2     3    2
     3     3     4    1
     4     4     5   ar
     5     5     6   ar
     6     6     7   ar
     7     7     8   ar
     8     8     9    1
     9     9    10   ar
    10    10    11   ar
    11    11    12    1
    12    12    13   ar
    13    13    14   ar
    14    14    15   ar
    15    15    16   ar
    16    16    17   ar
    17    17    18   ar
    18    18    19   ar
    19    11    20   ar
    20    20    21   ar
    21    21    22   ar
    22    22    23   ar
    23    23    24   ar
    24     6    25    1
    25    25    26   ar
    26    26    27   ar
    27    27    28   ar
    28    28    29   ar
    29    29    30   ar
    30    30    31   ar
    31    31    32   ar
    32     5     1    1
    33    24     9   ar
    34    32    25   ar
    35     8     4   ar
    36    19    12   ar
    37    24    20   ar
    38    32    28   ar
    39    19    15   ar
    40     1    33    1
    41     1    34    1
    42     2    35    1
    43     3    36    1
    44    14    37    1
    45    16    38    1
    46    17    39    1
    47    18    40    1
    48    21    41    1
    49    22    42    1
    50    27    43    1
    51    30    44    1
    52    31    45    1
