@<TRIPOS>MOLECULE
*****
 41 47 0 0 0
SMALL
GASTEIGER

@<TRIPOS>ATOM
      1 SI          0.4999   -0.0481   -2.5846 Si      1  UNL1        0.0000
      2 C           2.3201    0.2488   -3.0378 C.2     1  UNL1        0.0000
      3 C           3.1314    0.0384   -1.9788 C.2     1  UNL1        0.0000
      4 C           2.4673   -0.3533   -0.7666 C.ar    1  UNL1        0.0000
      5 C           1.0461   -0.4643   -0.8278 C.ar    1  UNL1        0.0000
      6 C           0.4417   -0.8610    0.3315 C.ar    1  UNL1        0.0000
      7 S           1.6637   -1.1286    1.5268 S.2     1  UNL1        0.0000
      8 C           2.9639   -0.6769    0.4753 C.ar    1  UNL1        0.0000
      9 C           4.3178   -0.6758    0.9413 C.ar    1  UNL1        0.0000
     10 S           5.0735   -1.9911    1.7892 S.2     1  UNL1        0.0000
     11 C           6.6015   -1.1694    1.9350 C.ar    1  UNL1        0.0000
     12 C           6.4714    0.0389    1.3491 C.ar    1  UNL1        0.0000
     13 C           7.2191    1.1971    1.0890 C.ar    1  UNL1        0.0000
     14 C           6.3373    2.0508    0.4140 C.ar    1  UNL1        0.0000
     15 O           5.0733    1.5243    0.2204 O.2     1  UNL1        0.0000
     16 C           5.2352    0.3059    0.8108 C.ar    1  UNL1        0.0000
     17 C          -0.9460   -1.0713    0.6499 C.ar    1  UNL1        0.0000
     18 N          -1.3600   -2.0954    1.3623 N.ar    1  UNL1        0.0000
     19 C          -2.7313   -2.0279    1.5236 C.ar    1  UNL1        0.0000
     20 C          -3.3728   -0.9489    0.9357 C.ar    1  UNL1        0.0000
     21 S          -2.1790    0.0147    0.1575 S.2     1  UNL1        0.0000
     22 C          -4.7798   -0.6368    0.9535 C.ar    1  UNL1        0.0000
     23 S          -5.9222   -1.5046    1.9557 S.2     1  UNL1        0.0000
     24 C          -7.2860   -0.5783    1.4225 C.ar    1  UNL1        0.0000
     25 C          -6.8353    0.3242    0.5304 C.ar    1  UNL1        0.0000
     26 C          -7.3111    1.3679   -0.2980 C.ar    1  UNL1        0.0000
     27 C          -6.1963    1.8838   -0.9900 C.ar    1  UNL1        0.0000
     28 N          -5.0242    1.2179   -0.6416 N.ar    1  UNL1        0.0000
     29 C          -5.4813    0.3030    0.2687 C.ar    1  UNL1        0.0000
     30 H          -0.0621   -1.2033   -3.3250 H       1  UNL1        0.0000
     31 H          -0.2967    1.2008   -2.6790 H       1  UNL1        0.0000
     32 H           2.6089    0.5467   -4.0331 H       1  UNL1        0.0000
     33 H           4.2081    0.1545   -2.0342 H       1  UNL1        0.0000
     34 H           7.4443   -1.6301    2.4302 H       1  UNL1        0.0000
     35 H           8.2461    1.4157    1.3432 H       1  UNL1        0.0000
     36 H           6.4593    3.0502    0.0169 H       1  UNL1        0.0000
     37 H          -3.2167   -2.8129    2.0916 H       1  UNL1        0.0000
     38 H          -8.2833   -0.7656    1.7939 H       1  UNL1        0.0000
     39 H          -8.3288    1.7208   -0.4004 H       1  UNL1        0.0000
     40 H          -6.1465    2.6873   -1.7148 H       1  UNL1        0.0000
     41 H          -4.0706    1.3521   -0.9558 H       1  UNL1        0.0000
@<TRIPOS>BOND
     1     1     2    1
     2     2     3    2
     3     3     4    1
     4     4     5   ar
     5     5     6   ar
     6     6     7   ar
     7     7     8   ar
     8     8     9    1
     9     9    10   ar
    10    10    11   ar
    11    11    12   ar
    12    12    13   ar
    13    13    14   ar
    14    14    15   ar
    15    15    16   ar
    16     6    17    1
    17    17    18   ar
    18    18    19   ar
    19    19    20   ar
    20    20    21   ar
    21    20    22    1
    22    22    23   ar
    23    23    24   ar
    24    24    25   ar
    25    25    26   ar
    26    26    27   ar
    27    27    28   ar
    28    28    29   ar
    29     5     1    1
    30    16     9   ar
    31    21    17   ar
    32    29    22   ar
    33     8     4   ar
    34    16    12   ar
    35    29    25   ar
    36     1    30    1
    37     1    31    1
    38     2    32    1
    39     3    33    1
    40    11    34    1
    41    13    35    1
    42    14    36    1
    43    19    37    1
    44    24    38    1
    45    26    39    1
    46    27    40    1
    47    28    41    1
