@<TRIPOS>MOLECULE
*****
 39 44 0 0 0
SMALL
GASTEIGER

@<TRIPOS>ATOM
      1 SI          0.0744   -1.7009    2.7137 Si      1  UNL1        0.0000
      2 C          -1.7099   -2.0658    3.2699 C.2     1  UNL1        0.0000
      3 C          -2.6088   -1.5026    2.4347 C.2     1  UNL1        0.0000
      4 C          -2.0444   -0.7692    1.3376 C.ar    1  UNL1        0.0000
      5 C          -0.6207   -0.7257    1.2530 C.ar    1  UNL1        0.0000
      6 C          -0.1213    0.0006    0.2082 C.ar    1  UNL1        0.0000
      7 S          -1.4512    0.6477   -0.6975 S.2     1  UNL1        0.0000
      8 C          -2.6459   -0.0596    0.3277 C.ar    1  UNL1        0.0000
      9 C          -4.0393    0.1250    0.0656 C.ar    1  UNL1        0.0000
     10 S          -5.0698   -1.1493   -0.4729 S.2     1  UNL1        0.0000
     11 C          -6.4582   -0.1302   -0.5381 C.ar    1  UNL1        0.0000
     12 C          -6.0839    1.1076   -0.1451 C.ar    1  UNL1        0.0000
     13 C          -6.7828    2.3291    0.0055 C.ar    1  UNL1        0.0000
     14 C          -5.9554    3.3642    0.4563 C.ar    1  UNL1        0.0000
     15 S          -4.2689    2.9503    0.7380 S.2     1  UNL1        0.0000
     16 C          -4.7448    1.2908    0.2017 C.ar    1  UNL1        0.0000
     17 C           1.2343    0.2693   -0.1912 C.ar    1  UNL1        0.0000
     18 C           1.7594    1.4421   -0.6993 C.ar    1  UNL1        0.0000
     19 N           3.1043    1.4217   -1.0122 N.ar    1  UNL1        0.0000
     20 C           3.6148    0.2293   -0.7637 C.ar    1  UNL1        0.0000
     21 S           2.4790   -0.9086   -0.1320 S.2     1  UNL1        0.0000
     22 C           5.0168   -0.1659   -1.0073 C.ar    1  UNL1        0.0000
     23 C           5.7046   -1.0751   -0.2035 C.ar    1  UNL1        0.0000
     24 C           7.0297   -1.3815   -0.5105 C.ar    1  UNL1        0.0000
     25 C           7.6342   -0.7739   -1.6033 C.ar    1  UNL1        0.0000
     26 C           6.8870    0.1214   -2.3477 C.ar    1  UNL1        0.0000
     27 N           5.6027    0.4354   -2.0755 N.ar    1  UNL1        0.0000
     28 H           0.7748   -2.9519    2.3300 H       1  UNL1        0.0000
     29 H           0.7835   -0.8647    3.7135 H       1  UNL1        0.0000
     30 H          -1.9108   -2.6532    4.1514 H       1  UNL1        0.0000
     31 H          -3.6802   -1.5891    2.5786 H       1  UNL1        0.0000
     32 H          -7.4230   -0.5051   -0.8490 H       1  UNL1        0.0000
     33 H          -7.8369    2.4744   -0.1968 H       1  UNL1        0.0000
     34 H          -6.2468    4.3878    0.6492 H       1  UNL1        0.0000
     35 H           1.2042    2.3589   -0.8599 H       1  UNL1        0.0000
     36 H           5.2376   -1.5369    0.6596 H       1  UNL1        0.0000
     37 H           7.5858   -2.0852    0.1026 H       1  UNL1        0.0000
     38 H           8.6637   -0.9886   -1.8672 H       1  UNL1        0.0000
     39 H           7.3124    0.6276   -3.2097 H       1  UNL1        0.0000
@<TRIPOS>BOND
     1     1     2    1
     2     2     3    2
     3     3     4    1
     4     4     5   ar
     5     5     6   ar
     6     6     7   ar
     7     7     8   ar
     8     8     9    1
     9     9    10   ar
    10    10    11   ar
    11    11    12   ar
    12    12    13   ar
    13    13    14   ar
    14    14    15   ar
    15    15    16   ar
    16     6    17    1
    17    17    18   ar
    18    18    19   ar
    19    19    20   ar
    20    20    21   ar
    21    20    22    1
    22    22    23   ar
    23    23    24   ar
    24    24    25   ar
    25    25    26   ar
    26    26    27   ar
    27     5     1    1
    28    16     9   ar
    29    21    17   ar
    30    27    22   ar
    31     8     4   ar
    32    16    12   ar
    33     1    28    1
    34     1    29    1
    35     2    30    1
    36     3    31    1
    37    11    32    1
    38    13    33    1
    39    14    34    1
    40    18    35    1
    41    23    36    1
    42    24    37    1
    43    25    38    1
    44    26    39    1
