@<TRIPOS>MOLECULE
*****
 46 52 0 0 0
SMALL
GASTEIGER

@<TRIPOS>ATOM
      1 SI         -1.3862    1.4741    2.7901 Si      1  UNL1        0.0000
      2 C          -3.2659    1.7389    3.0741 C.2     1  UNL1        0.0000
      3 C          -4.0012    1.0649    2.1642 C.2     1  UNL1        0.0000
      4 C          -3.2438    0.3163    1.2024 C.ar    1  UNL1        0.0000
      5 C          -1.8266    0.3624    1.3255 C.ar    1  UNL1        0.0000
      6 C          -1.1186   -0.3783    0.4160 C.ar    1  UNL1        0.0000
      7 S          -2.2636   -1.1440   -0.6415 S.2     1  UNL1        0.0000
      8 C          -3.6429   -0.4748    0.1536 C.ar    1  UNL1        0.0000
      9 C          -4.9720   -0.7466   -0.3119 C.ar    1  UNL1        0.0000
     10 S          -5.6168   -2.3460   -0.3991 S.2     1  UNL1        0.0000
     11 C          -7.1465   -1.8088   -0.9860 C.ar    1  UNL1        0.0000
     12 C          -7.1563   -0.4493   -1.1111 C.ar    1  UNL1        0.0000
     13 S          -8.4453    0.6768   -1.6701 S.2     1  UNL1        0.0000
     14 C          -7.2566    1.9399   -1.3767 C.ar    1  UNL1        0.0000
     15 C          -6.0102    1.5191   -0.8983 C.ar    1  UNL1        0.0000
     16 C          -5.9374    0.1099   -0.7292 C.ar    1  UNL1        0.0000
     17 C           0.3338   -0.5628    0.2473 C.ar    1  UNL1        0.0000
     18 C           0.9074   -1.5395   -0.5620 C.ar    1  UNL1        0.0000
     19 C           2.2994   -1.6228   -0.6492 C.ar    1  UNL1        0.0000
     20 C           3.1040   -0.7339    0.0653 C.ar    1  UNL1        0.0000
     21 C           2.4399    0.1986    0.8568 C.ar    1  UNL1        0.0000
     22 N           1.0922    0.3044    0.9623 N.ar    1  UNL1        0.0000
     23 C           4.5559   -0.7967    0.0001 C.ar    1  UNL1        0.0000
     24 C           5.3167   -1.8990    0.4743 C.ar    1  UNL1        0.0000
     25 C           6.7468   -1.9751    0.4303 C.ar    1  UNL1        0.0000
     26 C           7.5725   -0.9608   -0.0962 C.ar    1  UNL1        0.0000
     27 C           6.8284    0.1182   -0.5718 C.ar    1  UNL1        0.0000
     28 C           7.4179    1.2201   -1.1402 C.ar    1  UNL1        0.0000
     29 S           6.2408    2.3651   -1.6445 S.2     1  UNL1        0.0000
     30 C           4.9396    1.3790   -1.1020 C.ar    1  UNL1        0.0000
     31 C           5.3870    0.2084   -0.5319 C.ar    1  UNL1        0.0000
     32 H          -0.8086    0.7688    3.9629 H       1  UNL1        0.0000
     33 H          -0.7647    2.7762    2.4367 H       1  UNL1        0.0000
     34 H          -3.6177    2.3562    3.8846 H       1  UNL1        0.0000
     35 H          -5.0854    1.0765    2.1616 H       1  UNL1        0.0000
     36 H          -7.9534   -2.4924   -1.2108 H       1  UNL1        0.0000
     37 H          -7.5587    2.9572   -1.5858 H       1  UNL1        0.0000
     38 H          -5.2030    2.2116   -0.6905 H       1  UNL1        0.0000
     39 H           0.3032   -2.2421   -1.1253 H       1  UNL1        0.0000
     40 H           2.7481   -2.3819   -1.2863 H       1  UNL1        0.0000
     41 H           2.9943    0.9163    1.4579 H       1  UNL1        0.0000
     42 H           4.7858   -2.7461    0.9135 H       1  UNL1        0.0000
     43 H           7.2221   -2.8718    0.8302 H       1  UNL1        0.0000
     44 H           8.6515   -1.0374   -0.1215 H       1  UNL1        0.0000
     45 H           8.4684    1.4237   -1.2966 H       1  UNL1        0.0000
     46 H           3.9255    1.7275   -1.2423 H       1  UNL1        0.0000
@<TRIPOS>BOND
     1     1     2    1
     2     2     3    2
     3     3     4    1
     4     4     5   ar
     5     5     6   ar
     6     6     7   ar
     7     7     8   ar
     8     8     9    1
     9     9    10   ar
    10    10    11   ar
    11    11    12   ar
    12    12    13   ar
    13    13    14   ar
    14    14    15   ar
    15    15    16   ar
    16     6    17    1
    17    17    18   ar
    18    18    19   ar
    19    19    20   ar
    20    20    21   ar
    21    21    22   ar
    22    20    23    1
    23    23    24   ar
    24    24    25   ar
    25    25    26   ar
    26    26    27   ar
    27    27    28   ar
    28    28    29   ar
    29    29    30   ar
    30    30    31   ar
    31     5     1    1
    32    16     9   ar
    33    22    17   ar
    34    31    23   ar
    35     8     4   ar
    36    16    12   ar
    37    31    27   ar
    38     1    32    1
    39     1    33    1
    40     2    34    1
    41     3    35    1
    42    11    36    1
    43    14    37    1
    44    15    38    1
    45    18    39    1
    46    19    40    1
    47    21    41    1
    48    24    42    1
    49    25    43    1
    50    26    44    1
    51    28    45    1
    52    30    46    1
