@<TRIPOS>MOLECULE
*****
 33 38 0 0 0
SMALL
GASTEIGER

@<TRIPOS>ATOM
      1 SI          4.0986    1.3134    0.8925 Si      1  UNL1        0.0000
      2 C           5.2285   -0.0679    0.2692 C.2     1  UNL1        0.0000
      3 C           4.5552   -1.0811   -0.3035 C.2     1  UNL1        0.0000
      4 C           3.1068   -0.8714   -0.3047 C.ar    1  UNL1        0.0000
      5 C           2.6059    0.3191    0.2719 C.ar    1  UNL1        0.0000
      6 C           1.2567    0.6749    0.3486 C.ar    1  UNL1        0.0000
      7 N           1.0041    1.8660    0.8945 N.ar    1  UNL1        0.0000
      8 C          -0.2712    2.3013    0.9864 C.ar    1  UNL1        0.0000
      9 C          -1.3984    1.6007    0.6003 C.ar    1  UNL1        0.0000
     10 C          -2.6828    2.2385    0.7906 C.ar    1  UNL1        0.0000
     11 C          -3.9246    1.6589    0.4900 C.ar    1  UNL1        0.0000
     12 C          -3.7322    0.3778    0.0182 C.ar    1  UNL1        0.0000
     13 C          -4.7582   -0.4717   -0.3045 C.ar    1  UNL1        0.0000
     14 N          -4.1787   -1.6578   -0.6752 N.ar    1  UNL1        0.0000
     15 C          -2.8051   -1.5643   -0.5742 C.ar    1  UNL1        0.0000
     16 C          -2.4751   -0.2864   -0.1901 C.ar    1  UNL1        0.0000
     17 C          -1.1753    0.2888    0.0506 C.ar    1  UNL1        0.0000
     18 C           0.2073   -0.1755   -0.1348 C.ar    1  UNL1        0.0000
     19 C           0.6845   -1.3952   -0.7883 C.ar    1  UNL1        0.0000
     20 N          -0.0488   -2.3254   -1.4219 N.ar    1  UNL1        0.0000
     21 S           0.9633   -3.5006   -1.9842 S.2     1  UNL1        0.0000
     22 N           2.4196   -2.9058   -1.4839 N.ar    1  UNL1        0.0000
     23 C           2.1633   -1.7441   -0.8603 C.ar    1  UNL1        0.0000
     24 H           4.3477    2.5626    0.1290 H       1  UNL1        0.0000
     25 H           4.1784    1.4123    2.3721 H       1  UNL1        0.0000
     26 H           6.2988    0.0063    0.3871 H       1  UNL1        0.0000
     27 H           5.0067   -1.9684   -0.7284 H       1  UNL1        0.0000
     28 H          -0.3523    3.2962    1.4215 H       1  UNL1        0.0000
     29 H          -2.7065    3.2487    1.2060 H       1  UNL1        0.0000
     30 H          -4.8741    2.1490    0.6468 H       1  UNL1        0.0000
     31 H          -5.8335   -0.3575   -0.2902 H       1  UNL1        0.0000
     32 H          -4.6799   -2.4922   -0.9514 H       1  UNL1        0.0000
     33 H          -2.2288   -2.4493   -0.7798 H       1  UNL1        0.0000
@<TRIPOS>BOND
     1     1     2    1
     2     2     3    2
     3     3     4    1
     4     4     5   ar
     5     5     6   ar
     6     6     7   ar
     7     7     8   ar
     8     8     9   ar
     9     9    10   ar
    10    10    11   ar
    11    11    12   ar
    12    12    13   ar
    13    13    14   ar
    14    14    15   ar
    15    15    16   ar
    16    16    17   ar
    17    17    18   ar
    18    18    19   ar
    19    19    20   ar
    20    20    21   ar
    21    21    22   ar
    22    22    23   ar
    23     5     1    1
    24    18     6   ar
    25    23    19   ar
    26    23     4   ar
    27    17     9   ar
    28    16    12   ar
    29     1    24    1
    30     1    25    1
    31     2    26    1
    32     3    27    1
    33     8    28    1
    34    10    29    1
    35    11    30    1
    36    13    31    1
    37    14    32    1
    38    15    33    1
