@<TRIPOS>MOLECULE
*****
 48 53 0 0 0
SMALL
GASTEIGER

@<TRIPOS>ATOM
      1 SI          8.4212    1.4947    0.5457 Si      1  UNL1        0.0000
      2 C           6.8108    2.0581    1.4043 C.2     1  UNL1        0.0000
      3 C           5.7687    1.2661    1.0684 C.2     1  UNL1        0.0000
      4 C           6.0816    0.2007    0.1575 C.ar    1  UNL1        0.0000
      5 C           7.4364    0.1101   -0.2623 C.ar    1  UNL1        0.0000
      6 C           7.7082   -0.9132   -1.1141 C.ar    1  UNL1        0.0000
      7 S           6.2659   -1.8063   -1.4142 S.2     1  UNL1        0.0000
      8 C           5.2867   -0.7813   -0.3955 C.ar    1  UNL1        0.0000
      9 C           3.9045   -1.0407   -0.2671 C.2     1  UNL1        0.0000
     10 SI          2.5733    0.1272   -0.9047 Si      1  UNL1        0.0000
     11 C           1.2912   -1.1307   -0.2773 C.2     1  UNL1        0.0000
     12 C           1.9134   -2.1855    0.2967 C.2     1  UNL1        0.0000
     13 C           3.3696   -2.1402    0.2965 C.2     1  UNL1        0.0000
     14 C          -0.1401   -0.8846   -0.4352 C.ar    1  UNL1        0.0000
     15 C          -1.0581   -1.9317   -0.4799 C.ar    1  UNL1        0.0000
     16 C          -2.4160   -1.6446   -0.6289 C.ar    1  UNL1        0.0000
     17 C          -2.8415   -0.3196   -0.7304 C.ar    1  UNL1        0.0000
     18 C          -1.8525    0.6582   -0.6829 C.ar    1  UNL1        0.0000
     19 N          -0.5276    0.4065   -0.5414 N.ar    1  UNL1        0.0000
     20 C          -4.2597    0.0250   -0.8839 C.ar    1  UNL1        0.0000
     21 C          -4.8086    0.0188   -2.1794 C.ar    1  UNL1        0.0000
     22 C          -6.1444    0.3424   -2.3928 C.ar    1  UNL1        0.0000
     23 C          -6.9556    0.6782   -1.3132 C.ar    1  UNL1        0.0000
     24 C          -6.4466    0.6928   -0.0068 C.ar    1  UNL1        0.0000
     25 C          -7.2823    1.0321    1.0703 C.ar    1  UNL1        0.0000
     26 C          -6.7984    1.0500    2.3774 C.ar    1  UNL1        0.0000
     27 C          -5.4711    0.7280    2.6252 C.ar    1  UNL1        0.0000
     28 C          -4.6271    0.3898    1.5653 C.ar    1  UNL1        0.0000
     29 C          -5.0865    0.3639    0.2265 C.ar    1  UNL1        0.0000
     30 H           9.4201    1.0288    1.5397 H       1  UNL1        0.0000
     31 H           8.9077    2.5255   -0.4046 H       1  UNL1        0.0000
     32 H           6.8030    2.9081    2.0677 H       1  UNL1        0.0000
     33 H           4.7685    1.4156    1.4593 H       1  UNL1        0.0000
     34 H           8.6420   -1.2025   -1.5758 H       1  UNL1        0.0000
     35 H           2.5942    0.2350   -2.3886 H       1  UNL1        0.0000
     36 H           2.5778    1.4083   -0.1461 H       1  UNL1        0.0000
     37 H           1.4061   -3.0297    0.7472 H       1  UNL1        0.0000
     38 H           3.9483   -2.9486    0.7272 H       1  UNL1        0.0000
     39 H          -0.7374   -2.9655   -0.4094 H       1  UNL1        0.0000
     40 H          -3.1374   -2.4577   -0.6609 H       1  UNL1        0.0000
     41 H          -2.1069    1.7129   -0.7580 H       1  UNL1        0.0000
     42 H          -4.1854   -0.2392   -3.0339 H       1  UNL1        0.0000
     43 H          -6.5530    0.3344   -3.3998 H       1  UNL1        0.0000
     44 H          -7.9975    0.9298   -1.5002 H       1  UNL1        0.0000
     45 H          -8.3260    1.2866    0.8977 H       1  UNL1        0.0000
     46 H          -7.4585    1.3151    3.1991 H       1  UNL1        0.0000
     47 H          -5.0873    0.7372    3.6419 H       1  UNL1        0.0000
     48 H          -3.5939    0.1417    1.8015 H       1  UNL1        0.0000
@<TRIPOS>BOND
     1     1     2    1
     2     2     3    2
     3     3     4    1
     4     4     5   ar
     5     5     6   ar
     6     6     7   ar
     7     7     8   ar
     8     8     9    1
     9     9    10    1
    10    10    11    1
    11    11    12    2
    12    12    13    1
    13    11    14    1
    14    14    15   ar
    15    15    16   ar
    16    16    17   ar
    17    17    18   ar
    18    18    19   ar
    19    17    20    1
    20    20    21   ar
    21    21    22   ar
    22    22    23   ar
    23    23    24   ar
    24    24    25   ar
    25    25    26   ar
    26    26    27   ar
    27    27    28   ar
    28    28    29   ar
    29     5     1    1
    30    13     9    2
    31    19    14   ar
    32    29    20   ar
    33     8     4   ar
    34    29    24   ar
    35     1    30    1
    36     1    31    1
    37     2    32    1
    38     3    33    1
    39     6    34    1
    40    10    35    1
    41    10    36    1
    42    12    37    1
    43    13    38    1
    44    15    39    1
    45    16    40    1
    46    18    41    1
    47    21    42    1
    48    22    43    1
    49    23    44    1
    50    25    45    1
    51    26    46    1
    52    27    47    1
    53    28    48    1
