@<TRIPOS>MOLECULE
*****
 42 47 0 0 0
SMALL
GASTEIGER

@<TRIPOS>ATOM
      1 SI         -7.6535   -0.3100   -0.4427 Si      1  UNL1        0.0000
      2 C          -6.7100    0.7337   -1.7302 C.2     1  UNL1        0.0000
      3 C          -5.4030    0.8544   -1.4085 C.2     1  UNL1        0.0000
      4 C          -5.0060    0.1948   -0.1957 C.ar    1  UNL1        0.0000
      5 C          -6.0329   -0.5114    0.4937 C.ar    1  UNL1        0.0000
      6 C          -5.6359   -1.1561    1.6228 C.ar    1  UNL1        0.0000
      7 S          -3.9491   -0.9023    1.8597 S.2     1  UNL1        0.0000
      8 C          -3.7885    0.0946    0.4414 C.ar    1  UNL1        0.0000
      9 C          -2.5181    0.6727    0.0970 C.ar    1  UNL1        0.0000
     10 C          -2.2110    1.8486   -0.5576 C.ar    1  UNL1        0.0000
     11 C          -0.7994    1.9432   -0.6415 C.ar    1  UNL1        0.0000
     12 C          -0.2573    0.8251   -0.0344 C.ar    1  UNL1        0.0000
     13 N          -1.3205    0.0762    0.4187 N.ar    1  UNL1        0.0000
     14 C           1.1184    0.4224    0.1716 C.ar    1  UNL1        0.0000
     15 C           1.6396   -0.0475    1.3959 C.ar    1  UNL1        0.0000
     16 C           3.0133   -0.4376    1.5845 C.ar    1  UNL1        0.0000
     17 C           4.0336   -0.4123    0.5806 C.ar    1  UNL1        0.0000
     18 C           5.4207   -0.8185    0.8146 C.ar    1  UNL1        0.0000
     19 N           5.7165   -1.2840    2.0349 N.ar    1  UNL1        0.0000
     20 C           6.9871   -1.6396    2.2098 C.ar    1  UNL1        0.0000
     21 N           7.9516   -1.5705    1.2986 N.ar    1  UNL1        0.0000
     22 C           7.5450   -1.0938    0.1267 C.ar    1  UNL1        0.0000
     23 N           6.3084   -0.7051   -0.1765 N.ar    1  UNL1        0.0000
     24 C           3.4787    0.0526   -0.6241 C.ar    1  UNL1        0.0000
     25 C           4.0845    0.2204   -1.8457 C.ar    1  UNL1        0.0000
     26 O           3.1815    0.6744   -2.7647 O.2     1  UNL1        0.0000
     27 C           1.9798    0.8019   -2.1313 C.ar    1  UNL1        0.0000
     28 C           2.1081    0.4460   -0.8130 C.ar    1  UNL1        0.0000
     29 H          -8.6663    0.5068    0.2711 H       1  UNL1        0.0000
     30 H          -8.1632   -1.5681   -1.0428 H       1  UNL1        0.0000
     31 H          -7.2130    1.1389   -2.5933 H       1  UNL1        0.0000
     32 H          -4.6986    1.3949   -2.0288 H       1  UNL1        0.0000
     33 H          -6.2084   -1.7569    2.3164 H       1  UNL1        0.0000
     34 H          -2.9207    2.5784   -0.9233 H       1  UNL1        0.0000
     35 H          -0.2378    2.7560   -1.0847 H       1  UNL1        0.0000
     36 H          -1.2418   -0.8075    0.9025 H       1  UNL1        0.0000
     37 H           0.9815   -0.1048    2.2637 H       1  UNL1        0.0000
     38 H           3.2887   -0.7753    2.5870 H       1  UNL1        0.0000
     39 H           7.2603   -2.0212    3.1877 H       1  UNL1        0.0000
     40 H           8.2906   -1.0138   -0.6572 H       1  UNL1        0.0000
     41 H           5.0832    0.0712   -2.2306 H       1  UNL1        0.0000
     42 H           1.1640    1.1429   -2.7526 H       1  UNL1        0.0000
@<TRIPOS>BOND
     1     1     2    1
     2     2     3    2
     3     3     4    1
     4     4     5   ar
     5     5     6   ar
     6     6     7   ar
     7     7     8   ar
     8     8     9    1
     9     9    10   ar
    10    10    11   ar
    11    11    12   ar
    12    12    13   ar
    13    12    14    1
    14    14    15   ar
    15    15    16   ar
    16    16    17   ar
    17    17    18    1
    18    18    19   ar
    19    19    20   ar
    20    20    21   ar
    21    21    22   ar
    22    22    23   ar
    23    17    24   ar
    24    24    25   ar
    25    25    26   ar
    26    26    27   ar
    27    27    28   ar
    28     5     1    1
    29    13     9   ar
    30    28    14   ar
    31     8     4   ar
    32    23    18   ar
    33    28    24   ar
    34     1    29    1
    35     1    30    1
    36     2    31    1
    37     3    32    1
    38     6    33    1
    39    10    34    1
    40    11    35    1
    41    13    36    1
    42    15    37    1
    43    16    38    1
    44    20    39    1
    45    22    40    1
    46    25    41    1
    47    27    42    1
