@<TRIPOS>MOLECULE
*****
 45 50 0 0 0
SMALL
GASTEIGER

@<TRIPOS>ATOM
      1 SI         -7.5591    1.1483   -0.2648 Si      1  UNL1        0.0000
      2 C          -6.1253    1.7286   -1.3900 C.2     1  UNL1        0.0000
      3 C          -4.9277    1.3342   -0.9038 C.2     1  UNL1        0.0000
      4 C          -4.9861    0.5829    0.3171 C.ar    1  UNL1        0.0000
      5 C          -6.2788    0.3552    0.8622 C.ar    1  UNL1        0.0000
      6 C          -6.2954   -0.3484    2.0262 C.ar    1  UNL1        0.0000
      7 S          -4.6777   -0.7457    2.4787 S.2     1  UNL1        0.0000
      8 C          -3.9906    0.0311    1.0889 C.ar    1  UNL1        0.0000
      9 C          -2.5520    0.0173    0.9108 C.ar    1  UNL1        0.0000
     10 C          -1.6294    0.6670    1.7645 C.ar    1  UNL1        0.0000
     11 C          -0.2057    0.6593    1.5596 C.ar    1  UNL1        0.0000
     12 C           0.4524   -0.0018    0.4860 C.ar    1  UNL1        0.0000
     13 C           1.8965   -0.0102    0.2913 C.ar    1  UNL1        0.0000
     14 C           2.5999    1.1860    0.0929 C.ar    1  UNL1        0.0000
     15 C           3.9892    1.1865   -0.0820 C.ar    1  UNL1        0.0000
     16 C           4.7158   -0.0110   -0.0548 C.ar    1  UNL1        0.0000
     17 C           4.0159   -1.2082    0.1443 C.ar    1  UNL1        0.0000
     18 C           2.6268   -1.2065    0.3185 C.ar    1  UNL1        0.0000
     19 C           6.1721   -0.0350   -0.2483 C.ar    1  UNL1        0.0000
     20 C           6.9250   -0.8980   -1.0254 C.ar    1  UNL1        0.0000
     21 C           8.3230   -0.6295   -0.9535 C.ar    1  UNL1        0.0000
     22 C           8.5997    0.4266   -0.1165 C.ar    1  UNL1        0.0000
     23 S           7.1826    1.0849    0.5748 S.2     1  UNL1        0.0000
     24 C          -0.4814   -0.6373   -0.3461 C.ar    1  UNL1        0.0000
     25 C          -0.2314   -1.3525   -1.4933 C.ar    1  UNL1        0.0000
     26 N          -1.4437   -1.7957   -1.9753 N.ar    1  UNL1        0.0000
     27 C          -2.4671   -1.3638   -1.1612 C.ar    1  UNL1        0.0000
     28 C          -1.9017   -0.6274   -0.1475 C.ar    1  UNL1        0.0000
     29 H          -8.4281    0.1757   -0.9735 H       1  UNL1        0.0000
     30 H          -8.2651    2.3066    0.3376 H       1  UNL1        0.0000
     31 H          -6.3170    2.2994   -2.2840 H       1  UNL1        0.0000
     32 H          -3.9853    1.5635   -1.3889 H       1  UNL1        0.0000
     33 H          -7.1302   -0.6532    2.6423 H       1  UNL1        0.0000
     34 H          -2.0118    1.2123    2.6280 H       1  UNL1        0.0000
     35 H           0.4053    1.1922    2.2903 H       1  UNL1        0.0000
     36 H           2.0651    2.1334    0.0608 H       1  UNL1        0.0000
     37 H           4.4923    2.1359   -0.2507 H       1  UNL1        0.0000
     38 H           4.5463   -2.1570    0.1825 H       1  UNL1        0.0000
     39 H           2.1142   -2.1519    0.4870 H       1  UNL1        0.0000
     40 H           6.4904   -1.6854   -1.6295 H       1  UNL1        0.0000
     41 H           9.0848   -1.1836   -1.4879 H       1  UNL1        0.0000
     42 H           9.5669    0.8448    0.1260 H       1  UNL1        0.0000
     43 H           0.6855   -1.5918   -2.0147 H       1  UNL1        0.0000
     44 H          -1.5652   -2.3566   -2.8084 H       1  UNL1        0.0000
     45 H          -3.4936   -1.6214   -1.3855 H       1  UNL1        0.0000
@<TRIPOS>BOND
     1     1     2    1
     2     2     3    2
     3     3     4    1
     4     4     5   ar
     5     5     6   ar
     6     6     7   ar
     7     7     8   ar
     8     8     9    1
     9     9    10   ar
    10    10    11   ar
    11    11    12   ar
    12    12    13    1
    13    13    14   ar
    14    14    15   ar
    15    15    16   ar
    16    16    17   ar
    17    17    18   ar
    18    16    19    1
    19    19    20   ar
    20    20    21   ar
    21    21    22   ar
    22    22    23   ar
    23    12    24   ar
    24    24    25   ar
    25    25    26   ar
    26    26    27   ar
    27    27    28   ar
    28     5     1    1
    29    28     9   ar
    30     8     4   ar
    31    18    13   ar
    32    23    19   ar
    33    28    24   ar
    34     1    29    1
    35     1    30    1
    36     2    31    1
    37     3    32    1
    38     6    33    1
    39    10    34    1
    40    11    35    1
    41    14    36    1
    42    15    37    1
    43    17    38    1
    44    18    39    1
    45    20    40    1
    46    21    41    1
    47    22    42    1
    48    25    43    1
    49    26    44    1
    50    27    45    1
