@<TRIPOS>MOLECULE
*****
 46 52 0 0 0
SMALL
GASTEIGER

@<TRIPOS>ATOM
      1 SI         -7.9944    1.4225   -0.0354 Si      1  UNL1        0.0000
      2 C          -6.5402    2.1190   -1.0664 C.2     1  UNL1        0.0000
      3 C          -5.3660    1.5543   -0.7083 C.2     1  UNL1        0.0000
      4 C          -5.4580    0.5778    0.3382 C.ar    1  UNL1        0.0000
      5 C          -6.7538    0.3312    0.8666 C.ar    1  UNL1        0.0000
      6 C          -6.8019   -0.5944    1.8625 C.ar    1  UNL1        0.0000
      7 S          -5.2101   -1.1870    2.1713 S.2     1  UNL1        0.0000
      8 C          -4.4941   -0.1891    0.9486 C.ar    1  UNL1        0.0000
      9 C          -3.0629   -0.2658    0.7222 C.ar    1  UNL1        0.0000
     10 C          -2.1006    0.2232    1.6340 C.ar    1  UNL1        0.0000
     11 C          -0.6900    0.1687    1.4034 C.ar    1  UNL1        0.0000
     12 C          -0.0883   -0.3826    0.2415 C.ar    1  UNL1        0.0000
     13 C           1.3516   -0.4339    0.0366 C.ar    1  UNL1        0.0000
     14 C           2.1104    0.7278   -0.1185 C.ar    1  UNL1        0.0000
     15 C           3.4918    0.6456   -0.3083 C.ar    1  UNL1        0.0000
     16 C           4.1008   -0.6053   -0.3350 C.ar    1  UNL1        0.0000
     17 N           3.3882   -1.7479   -0.1843 N.ar    1  UNL1        0.0000
     18 C           2.0504   -1.6373    0.0012 C.ar    1  UNL1        0.0000
     19 C           5.5333   -0.7878   -0.5304 C.ar    1  UNL1        0.0000
     20 S           6.2415   -2.2565   -1.1428 S.2     1  UNL1        0.0000
     21 C           7.8675   -1.6446   -1.0653 C.ar    1  UNL1        0.0000
     22 C           7.8045   -0.3853   -0.5869 C.ar    1  UNL1        0.0000
     23 C           8.6527    0.6824   -0.2584 C.ar    1  UNL1        0.0000
     24 C           7.7983    1.6907    0.2037 C.ar    1  UNL1        0.0000
     25 O           6.4586    1.3484    0.1946 O.2     1  UNL1        0.0000
     26 C           6.5429    0.0787   -0.2978 C.ar    1  UNL1        0.0000
     27 C          -1.0512   -0.8652   -0.6686 C.ar    1  UNL1        0.0000
     28 C          -0.7518   -1.4213   -1.8921 C.ar    1  UNL1        0.0000
     29 S          -2.1647   -1.9095   -2.7369 S.2     1  UNL1        0.0000
     30 C          -3.1947   -1.3648   -1.4772 C.ar    1  UNL1        0.0000
     31 C          -2.4833   -0.8097   -0.4377 C.ar    1  UNL1        0.0000
     32 H          -8.9443    0.6743   -0.8956 H       1  UNL1        0.0000
     33 H          -8.5989    2.4799    0.8124 H       1  UNL1        0.0000
     34 H          -6.7068    2.8691   -1.8225 H       1  UNL1        0.0000
     35 H          -4.4197    1.8131   -1.1704 H       1  UNL1        0.0000
     36 H          -7.6465   -0.9622    2.4292 H       1  UNL1        0.0000
     37 H          -2.4450    0.6720    2.5669 H       1  UNL1        0.0000
     38 H          -0.0412    0.5724    2.1835 H       1  UNL1        0.0000
     39 H           1.6328    1.7049   -0.1029 H       1  UNL1        0.0000
     40 H           4.0646    1.5571   -0.4412 H       1  UNL1        0.0000
     41 H           1.5364   -2.5877    0.1285 H       1  UNL1        0.0000
     42 H           8.7121   -2.2475   -1.3661 H       1  UNL1        0.0000
     43 H           9.7290    0.7432   -0.3302 H       1  UNL1        0.0000
     44 H           7.9916    2.6908    0.5696 H       1  UNL1        0.0000
     45 H           0.2138   -1.5780   -2.3538 H       1  UNL1        0.0000
     46 H          -4.2647   -1.4835   -1.5821 H       1  UNL1        0.0000
@<TRIPOS>BOND
     1     1     2    1
     2     2     3    2
     3     3     4    1
     4     4     5   ar
     5     5     6   ar
     6     6     7   ar
     7     7     8   ar
     8     8     9    1
     9     9    10   ar
    10    10    11   ar
    11    11    12   ar
    12    12    13    1
    13    13    14   ar
    14    14    15   ar
    15    15    16   ar
    16    16    17   ar
    17    17    18   ar
    18    16    19    1
    19    19    20   ar
    20    20    21   ar
    21    21    22   ar
    22    22    23   ar
    23    23    24   ar
    24    24    25   ar
    25    25    26   ar
    26    12    27   ar
    27    27    28   ar
    28    28    29   ar
    29    29    30   ar
    30    30    31   ar
    31     5     1    1
    32    31     9   ar
    33     8     4   ar
    34    18    13   ar
    35    26    19   ar
    36    31    27   ar
    37    26    22   ar
    38     1    32    1
    39     1    33    1
    40     2    34    1
    41     3    35    1
    42     6    36    1
    43    10    37    1
    44    11    38    1
    45    14    39    1
    46    15    40    1
    47    18    41    1
    48    21    42    1
    49    23    43    1
    50    24    44    1
    51    28    45    1
    52    30    46    1
