@<TRIPOS>MOLECULE
*****
 45 51 0 0 0
SMALL
GASTEIGER

@<TRIPOS>ATOM
      1 SI          8.5409    0.2227   -0.4163 Si      1  UNL1        0.0000
      2 C           7.2354    1.2305   -1.3814 C.2     1  UNL1        0.0000
      3 C           5.9798    0.8908   -1.0150 C.2     1  UNL1        0.0000
      4 C           5.8947   -0.1287   -0.0087 C.ar    1  UNL1        0.0000
      5 C           7.1279   -0.6512    0.4683 C.ar    1  UNL1        0.0000
      6 C           7.0160   -1.6210    1.4151 C.ar    1  UNL1        0.0000
      7 S           5.3473   -1.9154    1.7372 S.2     1  UNL1        0.0000
      8 C           4.8103   -0.7222    0.5951 C.ar    1  UNL1        0.0000
      9 C           3.3808   -0.5053    0.4206 C.ar    1  UNL1        0.0000
     10 C           2.5041   -1.5147   -0.0245 C.ar    1  UNL1        0.0000
     11 C           1.1156   -1.3126   -0.2007 C.ar    1  UNL1        0.0000
     12 C           0.4654   -0.0827    0.0518 C.ar    1  UNL1        0.0000
     13 C          -0.9692    0.1265   -0.1362 C.ar    1  UNL1        0.0000
     14 C          -1.6626    1.2284   -0.6012 C.ar    1  UNL1        0.0000
     15 N          -3.0368    1.1042   -0.6651 N.ar    1  UNL1        0.0000
     16 C          -3.4108   -0.0842   -0.2345 C.ar    1  UNL1        0.0000
     17 S          -2.1070   -1.1009    0.2574 S.2     1  UNL1        0.0000
     18 C          -4.7877   -0.5597   -0.1466 C.ar    1  UNL1        0.0000
     19 C          -5.2207   -1.9071   -0.3029 C.ar    1  UNL1        0.0000
     20 C          -6.5924   -2.3402   -0.2128 C.ar    1  UNL1        0.0000
     21 C          -7.6815   -1.4787    0.0419 C.ar    1  UNL1        0.0000
     22 C          -7.2423   -0.1704    0.1883 C.ar    1  UNL1        0.0000
     23 C          -8.0413    0.9133    0.4458 C.ar    1  UNL1        0.0000
     24 N          -7.2114    2.0111    0.5200 N.ar    1  UNL1        0.0000
     25 C          -5.9009    1.6334    0.3191 C.ar    1  UNL1        0.0000
     26 C          -5.8861    0.2762    0.0997 C.ar    1  UNL1        0.0000
     27 C           1.3040    0.9823    0.5023 C.ar    1  UNL1        0.0000
     28 N           0.9277    2.2380    0.8078 N.ar    1  UNL1        0.0000
     29 S           2.2832    3.0523    1.2940 S.2     1  UNL1        0.0000
     30 N           3.4274    1.8712    1.1284 N.ar    1  UNL1        0.0000
     31 C           2.7976    0.7649    0.6929 C.ar    1  UNL1        0.0000
     32 H           9.3142   -0.6560   -1.3290 H       1  UNL1        0.0000
     33 H           9.3569    1.1006    0.4588 H       1  UNL1        0.0000
     34 H           7.5309    1.9697   -2.1082 H       1  UNL1        0.0000
     35 H           5.0971    1.3557   -1.4388 H       1  UNL1        0.0000
     36 H           7.7851   -2.1738    1.9370 H       1  UNL1        0.0000
     37 H           2.9099   -2.5015   -0.2539 H       1  UNL1        0.0000
     38 H           0.5326   -2.1608   -0.5630 H       1  UNL1        0.0000
     39 H          -1.2127    2.1613   -0.9202 H       1  UNL1        0.0000
     40 H          -4.4810   -2.6787   -0.5184 H       1  UNL1        0.0000
     41 H          -6.7995   -3.4018   -0.3538 H       1  UNL1        0.0000
     42 H          -8.7067   -1.8125    0.1081 H       1  UNL1        0.0000
     43 H          -9.1088    1.0171    0.5834 H       1  UNL1        0.0000
     44 H          -7.5163    2.9591    0.6979 H       1  UNL1        0.0000
     45 H          -5.1094    2.3710    0.3449 H       1  UNL1        0.0000
@<TRIPOS>BOND
     1     1     2    1
     2     2     3    2
     3     3     4    1
     4     4     5   ar
     5     5     6   ar
     6     6     7   ar
     7     7     8   ar
     8     8     9    1
     9     9    10   ar
    10    10    11   ar
    11    11    12   ar
    12    12    13    1
    13    13    14   ar
    14    14    15   ar
    15    15    16   ar
    16    16    17   ar
    17    16    18    1
    18    18    19   ar
    19    19    20   ar
    20    20    21   ar
    21    21    22   ar
    22    22    23   ar
    23    23    24   ar
    24    24    25   ar
    25    25    26   ar
    26    12    27   ar
    27    27    28   ar
    28    28    29   ar
    29    29    30   ar
    30    30    31   ar
    31     5     1    1
    32    31     9   ar
    33     8     4   ar
    34    17    13   ar
    35    26    18   ar
    36    31    27   ar
    37    26    22   ar
    38     1    32    1
    39     1    33    1
    40     2    34    1
    41     3    35    1
    42     6    36    1
    43    10    37    1
    44    11    38    1
    45    14    39    1
    46    19    40    1
    47    20    41    1
    48    21    42    1
    49    23    43    1
    50    24    44    1
    51    25    45    1
