@<TRIPOS>MOLECULE
*****
 24 27 0 0 0
SMALL
GASTEIGER

@<TRIPOS>ATOM
      1 SI         -0.1894   -1.3992    0.7607 Si      1  UNL1        0.0000
      2 C          -1.3983   -0.0993    0.0578 C.2     1  UNL1        0.0000
      3 C          -0.7343    0.9920   -0.3997 C.2     1  UNL1        0.0000
      4 C           0.6762    0.8690   -0.2307 C.ar    1  UNL1        0.0000
      5 O           1.6728    1.7482   -0.5628 O.2     1  UNL1        0.0000
      6 C           2.8254    1.1227   -0.1794 C.ar    1  UNL1        0.0000
      7 C           4.2037    1.3913   -0.1961 C.ar    1  UNL1        0.0000
      8 C           4.7637    0.2607    0.3764 C.ar    1  UNL1        0.0000
      9 N           3.7752   -0.6415    0.7199 N.ar    1  UNL1        0.0000
     10 C           2.5730   -0.0921    0.3682 C.ar    1  UNL1        0.0000
     11 C           1.2004   -0.2750    0.3453 C.ar    1  UNL1        0.0000
     12 C          -2.8113   -0.2197    0.0021 C.ar    1  UNL1        0.0000
     13 N          -3.6220    0.7018   -0.4944 N.ar    1  UNL1        0.0000
     14 C          -4.9417    0.3097   -0.4152 C.ar    1  UNL1        0.0000
     15 C          -5.1565   -0.9249    0.1467 C.ar    1  UNL1        0.0000
     16 S          -3.6610   -1.6194    0.5912 S.2     1  UNL1        0.0000
     17 H          -0.2002   -2.6576   -0.0293 H       1  UNL1        0.0000
     18 H          -0.3780   -1.6066    2.2199 H       1  UNL1        0.0000
     19 H          -1.1896    1.8677   -0.8449 H       1  UNL1        0.0000
     20 H           4.7138    2.2684   -0.5656 H       1  UNL1        0.0000
     21 H           5.8001    0.0169    0.5722 H       1  UNL1        0.0000
     22 H           3.8860   -1.5499    1.1530 H       1  UNL1        0.0000
     23 H          -5.7138    0.9721   -0.7871 H       1  UNL1        0.0000
     24 H          -6.0942   -1.4352    0.3117 H       1  UNL1        0.0000
@<TRIPOS>BOND
     1     1     2    1
     2     2     3    2
     3     3     4    1
     4     4     5   ar
     5     5     6   ar
     6     6     7   ar
     7     7     8   ar
     8     8     9   ar
     9     9    10   ar
    10    10    11   ar
    11     2    12    1
    12    12    13   ar
    13    13    14   ar
    14    14    15   ar
    15    15    16   ar
    16    11     1    1
    17    16    12   ar
    18    11     4   ar
    19    10     6   ar
    20     1    17    1
    21     1    18    1
    22     3    19    1
    23     7    20    1
    24     8    21    1
    25     9    22    1
    26    14    23    1
    27    15    24    1
