@<TRIPOS>MOLECULE
*****
 45 51 0 0 0
SMALL
GASTEIGER

@<TRIPOS>ATOM
      1 SI         -8.0479    0.1440   -0.8299 Si      1  UNL1        0.0000
      2 C          -6.6326    1.4217   -0.8935 C.2     1  UNL1        0.0000
      3 C          -5.4991    0.9336   -0.3427 C.2     1  UNL1        0.0000
      4 C          -5.5925   -0.4089    0.1602 C.ar    1  UNL1        0.0000
      5 C          -6.8615   -1.0403    0.0261 C.ar    1  UNL1        0.0000
      6 C          -6.9367   -2.3011    0.5297 C.ar    1  UNL1        0.0000
      7 S          -5.4103   -2.7403    1.1989 S.2     1  UNL1        0.0000
      8 C          -4.6701   -1.2240    0.7790 C.ar    1  UNL1        0.0000
      9 C          -3.2844   -0.9832    1.0912 C.ar    1  UNL1        0.0000
     10 C          -2.6512   -1.1948    2.3000 C.ar    1  UNL1        0.0000
     11 C          -1.2656   -0.8578    2.2567 C.ar    1  UNL1        0.0000
     12 C          -0.8705   -0.3969    1.0149 C.ar    1  UNL1        0.0000
     13 S          -2.1836   -0.4072   -0.0867 S.2     1  UNL1        0.0000
     14 C           0.4519    0.0196    0.6136 C.ar    1  UNL1        0.0000
     15 S           1.8316   -0.9057    1.0768 S.2     1  UNL1        0.0000
     16 C           2.9338    0.1267    0.2573 C.ar    1  UNL1        0.0000
     17 C           4.3522   -0.1895    0.2883 C.ar    1  UNL1        0.0000
     18 C           5.1301   -0.2106    1.4733 C.ar    1  UNL1        0.0000
     19 C           6.5277   -0.5223    1.5068 C.ar    1  UNL1        0.0000
     20 C           7.2902   -0.8462    0.3645 C.ar    1  UNL1        0.0000
     21 C           6.5212   -0.8269   -0.7995 C.ar    1  UNL1        0.0000
     22 C           7.0505   -1.1168   -2.0326 C.ar    1  UNL1        0.0000
     23 S           5.8538   -1.0201   -3.2615 S.2     1  UNL1        0.0000
     24 C           4.6255   -0.5900   -2.1365 C.ar    1  UNL1        0.0000
     25 C           5.1115   -0.5120   -0.8512 C.ar    1  UNL1        0.0000
     26 C           2.2666    1.1719   -0.3417 C.ar    1  UNL1        0.0000
     27 N           2.8948    2.1585   -1.0464 N.ar    1  UNL1        0.0000
     28 C           2.0038    3.0680   -1.5201 C.ar    1  UNL1        0.0000
     29 C           0.6218    3.0183   -1.3185 C.ar    1  UNL1        0.0000
     30 N          -0.0323    2.0530   -0.6208 N.ar    1  UNL1        0.0000
     31 C           0.8349    1.1142   -0.1357 C.ar    1  UNL1        0.0000
     32 H          -8.4484   -0.2808   -2.1942 H       1  UNL1        0.0000
     33 H          -9.1564    0.6175    0.0361 H       1  UNL1        0.0000
     34 H          -6.7837    2.3978   -1.3253 H       1  UNL1        0.0000
     35 H          -4.5851    1.5130   -0.2766 H       1  UNL1        0.0000
     36 H          -7.7708   -2.9890    0.5580 H       1  UNL1        0.0000
     37 H          -3.1572   -1.5674    3.1827 H       1  UNL1        0.0000
     38 H          -0.5985   -0.9454    3.1059 H       1  UNL1        0.0000
     39 H           4.6478    0.0309    2.4214 H       1  UNL1        0.0000
     40 H           7.0302   -0.5062    2.4746 H       1  UNL1        0.0000
     41 H           8.3457   -1.0795    0.4123 H       1  UNL1        0.0000
     42 H           8.0664   -1.3822   -2.2903 H       1  UNL1        0.0000
     43 H           3.6218   -0.4155   -2.4979 H       1  UNL1        0.0000
     44 H           2.4427    3.8800   -2.0932 H       1  UNL1        0.0000
     45 H          -0.0178    3.7920   -1.7343 H       1  UNL1        0.0000
@<TRIPOS>BOND
     1     1     2    1
     2     2     3    2
     3     3     4    1
     4     4     5   ar
     5     5     6   ar
     6     6     7   ar
     7     7     8   ar
     8     8     9    1
     9     9    10   ar
    10    10    11   ar
    11    11    12   ar
    12    12    13   ar
    13    12    14    1
    14    14    15   ar
    15    15    16   ar
    16    16    17    1
    17    17    18   ar
    18    18    19   ar
    19    19    20   ar
    20    20    21   ar
    21    21    22   ar
    22    22    23   ar
    23    23    24   ar
    24    24    25   ar
    25    16    26   ar
    26    26    27   ar
    27    27    28   ar
    28    28    29   ar
    29    29    30   ar
    30    30    31   ar
    31     5     1    1
    32    13     9   ar
    33    31    14   ar
    34     8     4   ar
    35    25    17   ar
    36    31    26   ar
    37    25    21   ar
    38     1    32    1
    39     1    33    1
    40     2    34    1
    41     3    35    1
    42     6    36    1
    43    10    37    1
    44    11    38    1
    45    18    39    1
    46    19    40    1
    47    20    41    1
    48    22    42    1
    49    24    43    1
    50    28    44    1
    51    29    45    1
