@<TRIPOS>MOLECULE
*****
 44 50 0 0 0
SMALL
GASTEIGER

@<TRIPOS>ATOM
      1 SI         -8.1835    0.0655   -0.9075 Si      1  UNL1        0.0000
      2 C          -6.7733    0.6614   -2.0509 C.2     1  UNL1        0.0000
      3 C          -5.5625    0.4832   -1.4778 C.2     1  UNL1        0.0000
      4 C          -5.5884   -0.1000   -0.1661 C.ar    1  UNL1        0.0000
      5 C          -6.8738   -0.4203    0.3533 C.ar    1  UNL1        0.0000
      6 C          -6.8720   -0.9900    1.5879 C.ar    1  UNL1        0.0000
      7 S          -5.2472   -1.1483    2.1415 S.2     1  UNL1        0.0000
      8 C          -4.5761   -0.4329    0.7062 C.ar    1  UNL1        0.0000
      9 C          -3.1351   -0.2835    0.6113 C.ar    1  UNL1        0.0000
     10 N          -2.3505   -1.3840    0.8140 N.ar    1  UNL1        0.0000
     11 C          -0.9837   -1.2963    0.7404 C.ar    1  UNL1        0.0000
     12 C          -0.2005   -0.1688    0.4513 C.ar    1  UNL1        0.0000
     13 C           1.2564   -0.1660    0.3772 C.ar    1  UNL1        0.0000
     14 C           1.9843    0.3988   -0.6948 C.ar    1  UNL1        0.0000
     15 C           3.3980    0.4076   -0.7758 C.ar    1  UNL1        0.0000
     16 C           4.2520   -0.1502    0.2041 C.ar    1  UNL1        0.0000
     17 C           5.7135   -0.1206    0.0941 C.ar    1  UNL1        0.0000
     18 C           6.4000    1.0535   -0.2473 C.ar    1  UNL1        0.0000
     19 C           7.7894    1.0534   -0.3661 C.ar    1  UNL1        0.0000
     20 C           8.4669   -0.1318   -0.1444 C.ar    1  UNL1        0.0000
     21 N           7.8571   -1.2883    0.1818 N.ar    1  UNL1        0.0000
     22 C           6.5055   -1.2528    0.2989 C.ar    1  UNL1        0.0000
     23 C           3.5784   -0.7395    1.3164 C.ar    1  UNL1        0.0000
     24 N           4.1534   -1.3267    2.3812 N.ar    1  UNL1        0.0000
     25 S           2.9378   -1.8255    3.3852 S.2     1  UNL1        0.0000
     26 N           1.6113   -1.3410    2.5227 N.ar    1  UNL1        0.0000
     27 C           2.0609   -0.7470    1.4025 C.ar    1  UNL1        0.0000
     28 C          -0.9885    0.9950    0.2368 C.ar    1  UNL1        0.0000
     29 N          -0.5290    2.2290   -0.0476 N.ar    1  UNL1        0.0000
     30 S          -1.8454    3.2247   -0.1717 S.2     1  UNL1        0.0000
     31 N          -3.0700    2.1471    0.0972 N.ar    1  UNL1        0.0000
     32 C          -2.5004    0.9475    0.3193 C.ar    1  UNL1        0.0000
     33 H          -9.0420    1.2002   -0.4858 H       1  UNL1        0.0000
     34 H          -8.9036   -1.0846   -1.5085 H       1  UNL1        0.0000
     35 H          -6.9864    1.0796   -3.0213 H       1  UNL1        0.0000
     36 H          -4.6373    0.7599   -1.9693 H       1  UNL1        0.0000
     37 H          -7.6982   -1.3278    2.1987 H       1  UNL1        0.0000
     38 H          -0.4967   -2.2546    0.9307 H       1  UNL1        0.0000
     39 H           1.4359    0.8591   -1.5199 H       1  UNL1        0.0000
     40 H           3.8436    0.8671   -1.6608 H       1  UNL1        0.0000
     41 H           5.8598    1.9833   -0.4101 H       1  UNL1        0.0000
     42 H           8.3286    1.9584   -0.6225 H       1  UNL1        0.0000
     43 H           9.5488   -0.1838   -0.2241 H       1  UNL1        0.0000
     44 H           6.0626   -2.2104    0.5633 H       1  UNL1        0.0000
@<TRIPOS>BOND
     1     1     2    1
     2     2     3    2
     3     3     4    1
     4     4     5   ar
     5     5     6   ar
     6     6     7   ar
     7     7     8   ar
     8     8     9    1
     9     9    10   ar
    10    10    11   ar
    11    11    12   ar
    12    12    13    1
    13    13    14   ar
    14    14    15   ar
    15    15    16   ar
    16    16    17    1
    17    17    18   ar
    18    18    19   ar
    19    19    20   ar
    20    20    21   ar
    21    21    22   ar
    22    16    23   ar
    23    23    24   ar
    24    24    25   ar
    25    25    26   ar
    26    26    27   ar
    27    12    28   ar
    28    28    29   ar
    29    29    30   ar
    30    30    31   ar
    31    31    32   ar
    32     5     1    1
    33    32     9   ar
    34     8     4   ar
    35    27    13   ar
    36    32    28   ar
    37    22    17   ar
    38    27    23   ar
    39     1    33    1
    40     1    34    1
    41     2    35    1
    42     3    36    1
    43     6    37    1
    44    11    38    1
    45    14    39    1
    46    15    40    1
    47    18    41    1
    48    19    42    1
    49    20    43    1
    50    22    44    1
