@<TRIPOS>MOLECULE
*****
 43 48 0 0 0
SMALL
GASTEIGER

@<TRIPOS>ATOM
      1 SI          8.1172    0.1842   -0.4088 Si      1  UNL1        0.0000
      2 C           6.9595    1.2795   -1.4509 C.2     1  UNL1        0.0000
      3 C           5.6598    0.9949   -1.2135 C.2     1  UNL1        0.0000
      4 C           5.4230   -0.0469   -0.2510 C.ar    1  UNL1        0.0000
      5 C           6.5870   -0.6367    0.3203 C.ar    1  UNL1        0.0000
      6 C           6.3511   -1.6208    1.2264 C.ar    1  UNL1        0.0000
      7 S           4.6535   -1.8411    1.3949 S.2     1  UNL1        0.0000
      8 C           4.2539   -0.6002    0.2352 C.ar    1  UNL1        0.0000
      9 C           2.8848   -0.2624   -0.1027 C.ar    1  UNL1        0.0000
     10 N           2.5905    0.7401   -0.9106 N.ar    1  UNL1        0.0000
     11 C           1.2227    0.8466   -1.0678 C.ar    1  UNL1        0.0000
     12 C           0.4695   -0.0759   -0.3741 C.ar    1  UNL1        0.0000
     13 S           1.5094   -1.1187    0.4971 S.2     1  UNL1        0.0000
     14 C          -0.9824   -0.2437   -0.3123 C.ar    1  UNL1        0.0000
     15 C          -1.5526   -1.2257   -1.1288 C.ar    1  UNL1        0.0000
     16 C          -2.9277   -1.4239   -1.1321 C.ar    1  UNL1        0.0000
     17 C          -3.7829   -0.6527   -0.3214 C.ar    1  UNL1        0.0000
     18 C          -5.2256   -0.9522   -0.3748 C.ar    1  UNL1        0.0000
     19 N          -5.7928   -1.0015   -1.5858 N.ar    1  UNL1        0.0000
     20 C          -7.0858   -1.3140   -1.5769 C.ar    1  UNL1        0.0000
     21 N          -7.8194   -1.5856   -0.5008 N.ar    1  UNL1        0.0000
     22 C          -7.1420   -1.5235    0.6425 C.ar    1  UNL1        0.0000
     23 N          -5.8546   -1.2161    0.7749 N.ar    1  UNL1        0.0000
     24 C          -3.2195    0.3690    0.5053 C.ar    1  UNL1        0.0000
     25 C          -4.0082    1.2224    1.3191 C.ar    1  UNL1        0.0000
     26 C          -3.4511    2.2142    2.1271 C.ar    1  UNL1        0.0000
     27 C          -2.0798    2.3900    2.1474 C.ar    1  UNL1        0.0000
     28 C          -1.2718    1.5798    1.3519 C.ar    1  UNL1        0.0000
     29 C          -1.8069    0.5688    0.5137 C.ar    1  UNL1        0.0000
     30 H           8.9282   -0.7135   -1.2685 H       1  UNL1        0.0000
     31 H           8.8895    0.9927    0.5673 H       1  UNL1        0.0000
     32 H           7.3524    2.0194   -2.1295 H       1  UNL1        0.0000
     33 H           4.8478    1.5134   -1.7119 H       1  UNL1        0.0000
     34 H           7.0474   -2.2207    1.7967 H       1  UNL1        0.0000
     35 H           0.8223    1.6260   -1.7052 H       1  UNL1        0.0000
     36 H          -0.9269   -1.8443   -1.7697 H       1  UNL1        0.0000
     37 H          -3.3437   -2.2001   -1.7739 H       1  UNL1        0.0000
     38 H          -7.5882   -1.3536   -2.5375 H       1  UNL1        0.0000
     39 H          -7.6906   -1.7434    1.5522 H       1  UNL1        0.0000
     40 H          -5.0921    1.1277    1.3365 H       1  UNL1        0.0000
     41 H          -4.0936    2.8417    2.7390 H       1  UNL1        0.0000
     42 H          -1.6333    3.1550    2.7770 H       1  UNL1        0.0000
     43 H          -0.1979    1.7521    1.3993 H       1  UNL1        0.0000
@<TRIPOS>BOND
     1     1     2    1
     2     2     3    2
     3     3     4    1
     4     4     5   ar
     5     5     6   ar
     6     6     7   ar
     7     7     8   ar
     8     8     9    1
     9     9    10   ar
    10    10    11   ar
    11    11    12   ar
    12    12    13   ar
    13    12    14    1
    14    14    15   ar
    15    15    16   ar
    16    16    17   ar
    17    17    18    1
    18    18    19   ar
    19    19    20   ar
    20    20    21   ar
    21    21    22   ar
    22    22    23   ar
    23    17    24   ar
    24    24    25   ar
    25    25    26   ar
    26    26    27   ar
    27    27    28   ar
    28    28    29   ar
    29     5     1    1
    30    13     9   ar
    31    29    14   ar
    32     8     4   ar
    33    23    18   ar
    34    29    24   ar
    35     1    30    1
    36     1    31    1
    37     2    32    1
    38     3    33    1
    39     6    34    1
    40    11    35    1
    41    15    36    1
    42    16    37    1
    43    20    38    1
    44    22    39    1
    45    25    40    1
    46    26    41    1
    47    27    42    1
    48    28    43    1
