@<TRIPOS>MOLECULE
*****
 47 53 0 0 0
SMALL
GASTEIGER

@<TRIPOS>ATOM
      1 SI          7.9412   -1.1693   -1.1943 Si      1  UNL1        0.0000
      2 C           6.5373   -0.5324   -2.3275 C.2     1  UNL1        0.0000
      3 C           5.4197   -0.2527   -1.6211 C.2     1  UNL1        0.0000
      4 C           5.5209   -0.4816   -0.2073 C.ar    1  UNL1        0.0000
      5 C           6.7676   -0.9776    0.2653 C.ar    1  UNL1        0.0000
      6 C           6.8295   -1.1976    1.6066 C.ar    1  UNL1        0.0000
      7 S           5.3146   -0.7874    2.3241 S.2     1  UNL1        0.0000
      8 C           4.6095   -0.3176    0.8106 C.ar    1  UNL1        0.0000
      9 C           3.2683    0.1854    0.7442 C.ar    1  UNL1        0.0000
     10 S           1.9043   -0.7452    1.2371 S.2     1  UNL1        0.0000
     11 C           0.7772    0.5016    0.8505 C.ar    1  UNL1        0.0000
     12 C          -0.6093    0.3890    1.0504 C.2     1  UNL1        0.0000
     13 SI         -1.7112   -0.7764    0.0631 Si      1  UNL1        0.0000
     14 C          -3.1639   -0.0973    1.0657 C.2     1  UNL1        0.0000
     15 C          -2.7489    0.8208    1.9628 C.2     1  UNL1        0.0000
     16 C          -1.3201    1.1043    1.9444 C.2     1  UNL1        0.0000
     17 C          -4.5123   -0.5920    0.9050 C.ar    1  UNL1        0.0000
     18 C          -5.1998   -1.3790    1.8625 C.ar    1  UNL1        0.0000
     19 C          -6.5431   -1.8688    1.6902 C.ar    1  UNL1        0.0000
     20 C          -7.3424   -1.6162    0.5513 C.ar    1  UNL1        0.0000
     21 C          -6.6544   -0.8300   -0.3638 C.ar    1  UNL1        0.0000
     22 C          -7.1411   -0.3845   -1.5655 C.ar    1  UNL1        0.0000
     23 N          -6.1452    0.3753   -2.1423 N.ar    1  UNL1        0.0000
     24 C          -5.0345    0.4128   -1.3231 C.ar    1  UNL1        0.0000
     25 C          -5.3204   -0.3410   -0.2096 C.ar    1  UNL1        0.0000
     26 C           1.4332    1.5955    0.3479 C.ar    1  UNL1        0.0000
     27 S           0.8364    3.1980   -0.2466 S.2     1  UNL1        0.0000
     28 C           2.5323    3.5597   -0.5301 C.ar    1  UNL1        0.0000
     29 C           3.4445    2.5502   -0.2066 C.ar    1  UNL1        0.0000
     30 C           2.8130    1.3840    0.3028 C.ar    1  UNL1        0.0000
     31 H           8.2860   -2.5767   -1.5131 H       1  UNL1        0.0000
     32 H           9.0814   -0.2190   -1.1813 H       1  UNL1        0.0000
     33 H           6.6846   -0.4397   -3.3920 H       1  UNL1        0.0000
     34 H           4.5077    0.1101   -2.0819 H       1  UNL1        0.0000
     35 H           7.6450   -1.5667    2.2136 H       1  UNL1        0.0000
     36 H          -1.7733   -0.4044   -1.3762 H       1  UNL1        0.0000
     37 H          -1.4376   -2.2090    0.3500 H       1  UNL1        0.0000
     38 H          -3.4048    1.3290    2.6601 H       1  UNL1        0.0000
     39 H          -0.8975    1.8395    2.6185 H       1  UNL1        0.0000
     40 H          -4.6839   -1.6415    2.7874 H       1  UNL1        0.0000
     41 H          -6.9675   -2.4739    2.4926 H       1  UNL1        0.0000
     42 H          -8.3505   -1.9864    0.4349 H       1  UNL1        0.0000
     43 H          -8.0910   -0.5212   -2.0637 H       1  UNL1        0.0000
     44 H          -6.2190    0.8448   -3.0354 H       1  UNL1        0.0000
     45 H          -4.1614    0.9794   -1.6160 H       1  UNL1        0.0000
     46 H           2.7649    4.5355   -0.9332 H       1  UNL1        0.0000
     47 H           4.5139    2.6703   -0.3357 H       1  UNL1        0.0000
@<TRIPOS>BOND
     1     1     2    1
     2     2     3    2
     3     3     4    1
     4     4     5   ar
     5     5     6   ar
     6     6     7   ar
     7     7     8   ar
     8     8     9    1
     9     9    10   ar
    10    10    11   ar
    11    11    12    1
    12    12    13    1
    13    13    14    1
    14    14    15    2
    15    15    16    1
    16    14    17    1
    17    17    18   ar
    18    18    19   ar
    19    19    20   ar
    20    20    21   ar
    21    21    22   ar
    22    22    23   ar
    23    23    24   ar
    24    24    25   ar
    25    11    26   ar
    26    26    27   ar
    27    27    28   ar
    28    28    29   ar
    29    29    30   ar
    30     5     1    1
    31    30     9   ar
    32     8     4   ar
    33    16    12    2
    34    25    17   ar
    35    30    26   ar
    36    25    21   ar
    37     1    31    1
    38     1    32    1
    39     2    33    1
    40     3    34    1
    41     6    35    1
    42    13    36    1
    43    13    37    1
    44    15    38    1
    45    16    39    1
    46    18    40    1
    47    19    41    1
    48    20    42    1
    49    22    43    1
    50    23    44    1
    51    24    45    1
    52    28    46    1
    53    29    47    1
