@<TRIPOS>MOLECULE
*****
 46 53 0 0 0
SMALL
GASTEIGER

@<TRIPOS>ATOM
      1 SI         -7.7708   -1.5336   -1.0772 Si      1  UNL1        0.0000
      2 C          -6.4678   -0.8875   -2.3205 C.2     1  UNL1        0.0000
      3 C          -5.3141   -0.5545   -1.7010 C.2     1  UNL1        0.0000
      4 C          -5.3130   -0.7424   -0.2779 C.ar    1  UNL1        0.0000
      5 C          -6.5079   -1.2610    0.2925 C.ar    1  UNL1        0.0000
      6 C          -6.4693   -1.4466    1.6396 C.ar    1  UNL1        0.0000
      7 S          -4.9220   -0.9716    2.2387 S.2     1  UNL1        0.0000
      8 C          -4.3408   -0.5193    0.6698 C.ar    1  UNL1        0.0000
      9 C          -3.0274    0.0195    0.4989 C.ar    1  UNL1        0.0000
     10 S          -1.5688   -0.8340    0.8751 S.2     1  UNL1        0.0000
     11 C          -0.5324    0.4701    0.3656 C.ar    1  UNL1        0.0000
     12 C           0.8940    0.3870    0.4018 C.ar    1  UNL1        0.0000
     13 S           1.8748    0.7241   -0.9746 S.2     1  UNL1        0.0000
     14 C           3.3502    0.3994   -0.1434 C.ar    1  UNL1        0.0000
     15 C           4.6293    0.4741   -0.7836 C.ar    1  UNL1        0.0000
     16 S           5.1146    1.8201   -1.7809 S.2     1  UNL1        0.0000
     17 C           6.6893    1.1650   -2.1080 C.ar    1  UNL1        0.0000
     18 C           6.7836   -0.0175   -1.4687 C.ar    1  UNL1        0.0000
     19 N           7.8532   -0.8642   -1.4678 N.ar    1  UNL1        0.0000
     20 C           7.3763   -1.9007   -0.6676 C.ar    1  UNL1        0.0000
     21 C           6.0602   -1.6509   -0.2226 C.ar    1  UNL1        0.0000
     22 C           5.6691   -0.3912   -0.7515 C.ar    1  UNL1        0.0000
     23 C           3.0344    0.0730    1.1353 C.ar    1  UNL1        0.0000
     24 C           3.8039   -0.2465    2.2872 C.ar    1  UNL1        0.0000
     25 C           3.0154   -0.4905    3.4155 C.ar    1  UNL1        0.0000
     26 S           1.2807   -0.3442    3.1978 S.2     1  UNL1        0.0000
     27 C           1.6785    0.0614    1.4769 C.ar    1  UNL1        0.0000
     28 C          -1.3345    1.4699   -0.0683 C.ar    1  UNL1        0.0000
     29 C          -1.2842    2.7837   -0.6059 C.ar    1  UNL1        0.0000
     30 C          -2.6164    3.2089   -0.7954 C.ar    1  UNL1        0.0000
     31 N          -3.5274    2.2320   -0.4018 N.ar    1  UNL1        0.0000
     32 C          -2.6898    1.2329    0.0093 C.ar    1  UNL1        0.0000
     33 H          -8.0926   -2.9589   -1.3335 H       1  UNL1        0.0000
     34 H          -8.9349   -0.6157   -1.0106 H       1  UNL1        0.0000
     35 H          -6.6868   -0.8373   -3.3750 H       1  UNL1        0.0000
     36 H          -4.4441   -0.1869   -2.2346 H       1  UNL1        0.0000
     37 H          -7.2267   -1.8276    2.3112 H       1  UNL1        0.0000
     38 H           7.4124    1.6747   -2.7286 H       1  UNL1        0.0000
     39 H           8.7428   -0.7481   -1.9376 H       1  UNL1        0.0000
     40 H           8.0163   -2.7533   -0.4788 H       1  UNL1        0.0000
     41 H           5.4746   -2.3153    0.3993 H       1  UNL1        0.0000
     42 H           4.8859   -0.2933    2.3185 H       1  UNL1        0.0000
     43 H           3.3664   -0.7507    4.4049 H       1  UNL1        0.0000
     44 H          -0.4028    3.3702   -0.8302 H       1  UNL1        0.0000
     45 H          -2.9904    4.1489   -1.1806 H       1  UNL1        0.0000
     46 H          -4.5410    2.2287   -0.4014 H       1  UNL1        0.0000
@<TRIPOS>BOND
     1     1     2    1
     2     2     3    2
     3     3     4    1
     4     4     5   ar
     5     5     6   ar
     6     6     7   ar
     7     7     8   ar
     8     8     9    1
     9     9    10   ar
    10    10    11   ar
    11    11    12    1
    12    12    13   ar
    13    13    14   ar
    14    14    15    1
    15    15    16   ar
    16    16    17   ar
    17    17    18   ar
    18    18    19   ar
    19    19    20   ar
    20    20    21   ar
    21    21    22   ar
    22    14    23   ar
    23    23    24   ar
    24    24    25   ar
    25    25    26   ar
    26    26    27   ar
    27    11    28   ar
    28    28    29   ar
    29    29    30   ar
    30    30    31   ar
    31    31    32   ar
    32     5     1    1
    33    32     9   ar
    34     8     4   ar
    35    27    12   ar
    36    32    28   ar
    37    22    15   ar
    38    27    23   ar
    39    22    18   ar
    40     1    33    1
    41     1    34    1
    42     2    35    1
    43     3    36    1
    44     6    37    1
    45    17    38    1
    46    19    39    1
    47    20    40    1
    48    21    41    1
    49    24    42    1
    50    25    43    1
    51    29    44    1
    52    30    45    1
    53    31    46    1
