@<TRIPOS>MOLECULE
*****
 46 52 0 0 0
SMALL
GASTEIGER

@<TRIPOS>ATOM
      1 SI          5.6847    1.9879    0.6503 Si      1  UNL1        0.0000
      2 C           7.5997    1.8971    0.5760 C.2     1  UNL1        0.0000
      3 C           8.0197    0.6802    0.1654 C.2     1  UNL1        0.0000
      4 C           6.9730   -0.2551   -0.1091 C.ar    1  UNL1        0.0000
      5 C           7.0267   -1.5518   -0.5429 C.ar    1  UNL1        0.0000
      6 S           5.4343   -2.2020   -0.7164 S.2     1  UNL1        0.0000
      7 C           4.6749   -0.7417   -0.1822 C.ar    1  UNL1        0.0000
      8 C           5.6376    0.1883    0.0832 C.ar    1  UNL1        0.0000
      9 C           3.2329   -0.6744   -0.0905 C.ar    1  UNL1        0.0000
     10 C           2.3475   -0.7202   -1.1891 C.ar    1  UNL1        0.0000
     11 C           0.9131   -0.6338   -1.0695 C.ar    1  UNL1        0.0000
     12 C           0.2044   -0.4952    0.1601 C.ar    1  UNL1        0.0000
     13 C          -1.2472   -0.3992    0.3240 C.ar    1  UNL1        0.0000
     14 N          -1.8642   -0.1169    1.4567 N.ar    1  UNL1        0.0000
     15 C          -3.2321   -0.1080    1.2765 C.ar    1  UNL1        0.0000
     16 C          -3.6691   -0.3698   -0.0052 C.ar    1  UNL1        0.0000
     17 S          -2.3164   -0.6717   -1.0071 S.2     1  UNL1        0.0000
     18 C          -5.0159   -0.4211   -0.5350 C.ar    1  UNL1        0.0000
     19 C          -5.6129   -1.5889   -1.0705 C.ar    1  UNL1        0.0000
     20 C          -6.9598   -1.6454   -1.5563 C.ar    1  UNL1        0.0000
     21 C          -7.8446   -0.5444   -1.5592 C.ar    1  UNL1        0.0000
     22 C          -7.2487    0.6053   -1.0395 C.ar    1  UNL1        0.0000
     23 C          -7.9157    1.8027   -0.9516 C.ar    1  UNL1        0.0000
     24 S          -6.9109    3.0264   -0.2831 S.2     1  UNL1        0.0000
     25 C          -5.5797    1.9490   -0.1150 C.ar    1  UNL1        0.0000
     26 C          -5.8935    0.6786   -0.5422 C.ar    1  UNL1        0.0000
     27 C           1.1083   -0.4603    1.2331 C.ar    1  UNL1        0.0000
     28 C           0.8528   -0.3573    2.5791 C.ar    1  UNL1        0.0000
     29 O           2.0234   -0.3821    3.2839 O.2     1  UNL1        0.0000
     30 C           3.0430   -0.5087    2.3852 C.ar    1  UNL1        0.0000
     31 C           2.5353   -0.5464    1.1116 C.ar    1  UNL1        0.0000
     32 H           5.1668    2.9482   -0.3578 H       1  UNL1        0.0000
     33 H           5.2250    2.2036    2.0456 H       1  UNL1        0.0000
     34 H           8.2025    2.7493    0.8430 H       1  UNL1        0.0000
     35 H           9.0660    0.4210    0.0537 H       1  UNL1        0.0000
     36 H           7.8896   -2.1586   -0.7780 H       1  UNL1        0.0000
     37 H           2.7652   -0.8217   -2.1912 H       1  UNL1        0.0000
     38 H           0.3552   -0.6749   -2.0056 H       1  UNL1        0.0000
     39 H          -3.8739    0.1003    2.1239 H       1  UNL1        0.0000
     40 H          -5.0273   -2.5088   -1.1079 H       1  UNL1        0.0000
     41 H          -7.3227   -2.5988   -1.9438 H       1  UNL1        0.0000
     42 H          -8.8586   -0.6104   -1.9323 H       1  UNL1        0.0000
     43 H          -8.9315    2.0376   -1.2394 H       1  UNL1        0.0000
     44 H          -4.6486    2.3261    0.2870 H       1  UNL1        0.0000
     45 H          -0.0424   -0.2730    3.1811 H       1  UNL1        0.0000
     46 H           4.0344   -0.5608    2.8144 H       1  UNL1        0.0000
@<TRIPOS>BOND
     1     1     2    1
     2     2     3    2
     3     3     4    1
     4     4     5   ar
     5     5     6   ar
     6     6     7   ar
     7     7     8   ar
     8     7     9    1
     9     9    10   ar
    10    10    11   ar
    11    11    12   ar
    12    12    13    1
    13    13    14   ar
    14    14    15   ar
    15    15    16   ar
    16    16    17   ar
    17    16    18    1
    18    18    19   ar
    19    19    20   ar
    20    20    21   ar
    21    21    22   ar
    22    22    23   ar
    23    23    24   ar
    24    24    25   ar
    25    25    26   ar
    26    12    27   ar
    27    27    28   ar
    28    28    29   ar
    29    29    30   ar
    30    30    31   ar
    31     8     1    1
    32    31     9   ar
    33     8     4   ar
    34    17    13   ar
    35    26    18   ar
    36    31    27   ar
    37    26    22   ar
    38     1    32    1
    39     1    33    1
    40     2    34    1
    41     3    35    1
    42     5    36    1
    43    10    37    1
    44    11    38    1
    45    15    39    1
    46    19    40    1
    47    20    41    1
    48    21    42    1
    49    23    43    1
    50    25    44    1
    51    28    45    1
    52    30    46    1
