@<TRIPOS>MOLECULE
*****
 40 44 0 0 0
SMALL
GASTEIGER

@<TRIPOS>ATOM
      1 SI          4.4746   -0.9132   -2.3306 Si      1  UNL1        0.0000
      2 C           6.3715   -1.1473   -2.4957 C.2     1  UNL1        0.0000
      3 C           6.9929   -0.9744   -1.3083 C.2     1  UNL1        0.0000
      4 C           6.1237   -0.6613   -0.2158 C.ar    1  UNL1        0.0000
      5 C           6.3972   -0.4324    1.1052 C.ar    1  UNL1        0.0000
      6 S           4.9432   -0.1038    1.9804 S.2     1  UNL1        0.0000
      7 C           3.9445   -0.2687    0.5751 C.ar    1  UNL1        0.0000
      8 C           4.7353   -0.5636   -0.4975 C.ar    1  UNL1        0.0000
      9 C           2.5006   -0.0756    0.6748 C.ar    1  UNL1        0.0000
     10 C           1.8790    0.9654   -0.0251 C.ar    1  UNL1        0.0000
     11 C           0.4939    1.1464    0.0511 C.ar    1  UNL1        0.0000
     12 C          -0.2945    0.2854    0.8236 C.ar    1  UNL1        0.0000
     13 C           0.3293   -0.7506    1.5297 C.ar    1  UNL1        0.0000
     14 C           1.7140   -0.9319    1.4536 C.ar    1  UNL1        0.0000
     15 C          -1.7388    0.4633    0.9182 C.2     1  UNL1        0.0000
     16 SI         -2.8836    0.3752   -0.5930 Si      1  UNL1        0.0000
     17 C          -4.3260    0.6853    0.5674 C.2     1  UNL1        0.0000
     18 C          -3.8927    0.8107    1.8422 C.2     1  UNL1        0.0000
     19 C          -2.4558    0.6841    2.0393 C.2     1  UNL1        0.0000
     20 C          -5.6970    0.7666    0.0836 C.ar    1  UNL1        0.0000
     21 N          -5.9234    0.6206   -1.2232 N.ar    1  UNL1        0.0000
     22 C          -7.2035    0.7090   -1.5792 C.ar    1  UNL1        0.0000
     23 N          -8.2315    0.9236   -0.7641 N.ar    1  UNL1        0.0000
     24 C          -7.8833    1.0533    0.5126 C.ar    1  UNL1        0.0000
     25 N          -6.6466    0.9860    0.9980 N.ar    1  UNL1        0.0000
     26 H           4.0230    0.2654   -3.1128 H       1  UNL1        0.0000
     27 H           3.7669   -2.1850   -2.6215 H       1  UNL1        0.0000
     28 H           6.8175   -1.3874   -3.4471 H       1  UNL1        0.0000
     29 H           8.0656   -1.0642   -1.1815 H       1  UNL1        0.0000
     30 H           7.3496   -0.4371    1.6159 H       1  UNL1        0.0000
     31 H           2.4711    1.6560   -0.6217 H       1  UNL1        0.0000
     32 H           0.0446    1.9787   -0.4863 H       1  UNL1        0.0000
     33 H          -0.2588   -1.4319    2.1411 H       1  UNL1        0.0000
     34 H           2.1725   -1.7507    2.0037 H       1  UNL1        0.0000
     35 H          -2.6120    1.5003   -1.5278 H       1  UNL1        0.0000
     36 H          -2.8808   -0.9854   -1.1928 H       1  UNL1        0.0000
     37 H          -4.5464    0.9949    2.6875 H       1  UNL1        0.0000
     38 H          -2.0257    0.7720    3.0301 H       1  UNL1        0.0000
     39 H          -7.4286    0.5951   -2.6342 H       1  UNL1        0.0000
     40 H          -8.6815    1.2304    1.2254 H       1  UNL1        0.0000
@<TRIPOS>BOND
     1     1     2    1
     2     2     3    2
     3     3     4    1
     4     4     5   ar
     5     5     6   ar
     6     6     7   ar
     7     7     8   ar
     8     7     9    1
     9     9    10   ar
    10    10    11   ar
    11    11    12   ar
    12    12    13   ar
    13    13    14   ar
    14    12    15    1
    15    15    16    1
    16    16    17    1
    17    17    18    2
    18    18    19    1
    19    17    20    1
    20    20    21   ar
    21    21    22   ar
    22    22    23   ar
    23    23    24   ar
    24    24    25   ar
    25     8     1    1
    26    14     9   ar
    27    19    15    2
    28    25    20   ar
    29     8     4   ar
    30     1    26    1
    31     1    27    1
    32     2    28    1
    33     3    29    1
    34     5    30    1
    35    10    31    1
    36    11    32    1
    37    13    33    1
    38    14    34    1
    39    16    35    1
    40    16    36    1
    41    18    37    1
    42    19    38    1
    43    22    39    1
    44    24    40    1
