@<TRIPOS>MOLECULE
*****
 43 49 0 0 0
SMALL
GASTEIGER

@<TRIPOS>ATOM
      1 SI         -5.4067   -0.3079    2.6129 Si      1  UNL1        0.0000
      2 C          -7.3175   -0.3411    2.6389 C.2     1  UNL1        0.0000
      3 C          -7.8336    0.0283    1.4471 C.2     1  UNL1        0.0000
      4 C          -6.8635    0.3616    0.4472 C.ar    1  UNL1        0.0000
      5 C          -7.0281    0.7816   -0.8466 C.ar    1  UNL1        0.0000
      6 S          -5.4990    1.0591   -1.5893 S.2     1  UNL1        0.0000
      7 C          -4.6027    0.6144   -0.1695 C.ar    1  UNL1        0.0000
      8 C          -5.4910    0.2652    0.8151 C.ar    1  UNL1        0.0000
      9 C          -3.1409    0.6253   -0.2057 C.ar    1  UNL1        0.0000
     10 C          -2.4210    1.7200   -0.6826 C.ar    1  UNL1        0.0000
     11 C          -1.0265    1.6701   -0.7491 C.ar    1  UNL1        0.0000
     12 C          -0.3634    0.5239   -0.3286 C.ar    1  UNL1        0.0000
     13 N          -1.0388   -0.5346    0.1771 N.ar    1  UNL1        0.0000
     14 C          -2.3951   -0.4697    0.2063 C.ar    1  UNL1        0.0000
     15 C           1.0848    0.3678   -0.3705 C.ar    1  UNL1        0.0000
     16 C           1.8317   -0.2485    0.6411 C.ar    1  UNL1        0.0000
     17 N           3.1899   -0.4567    0.6902 N.ar    1  UNL1        0.0000
     18 C           4.0023   -0.0962   -0.3441 C.ar    1  UNL1        0.0000
     19 C           5.4190   -0.3751   -0.2648 C.ar    1  UNL1        0.0000
     20 C           6.4316    0.5660   -0.4986 C.ar    1  UNL1        0.0000
     21 N           7.7932    0.3777   -0.4475 N.ar    1  UNL1        0.0000
     22 C           8.3157   -0.8492   -0.1504 C.ar    1  UNL1        0.0000
     23 C           7.4223   -1.9080    0.0951 C.ar    1  UNL1        0.0000
     24 N           7.7524   -3.1800    0.3726 N.ar    1  UNL1        0.0000
     25 S           6.3245   -4.0014    0.5577 S.2     1  UNL1        0.0000
     26 N           5.2337   -2.7853    0.2859 N.ar    1  UNL1        0.0000
     27 C           5.9344   -1.6640    0.0404 C.ar    1  UNL1        0.0000
     28 C           3.3878    0.5343   -1.4600 C.ar    1  UNL1        0.0000
     29 N           3.9898    0.9849   -2.5752 N.ar    1  UNL1        0.0000
     30 S           2.7855    1.4851   -3.5985 S.2     1  UNL1        0.0000
     31 N           1.4644    1.3085   -2.6201 N.ar    1  UNL1        0.0000
     32 C           1.8898    0.7563   -1.4695 C.ar    1  UNL1        0.0000
     33 H          -4.8758    0.6983    3.5595 H       1  UNL1        0.0000
     34 H          -4.8345   -1.6858    2.7702 H       1  UNL1        0.0000
     35 H          -7.8524   -0.6286    3.5273 H       1  UNL1        0.0000
     36 H          -8.8987    0.0818    1.2566 H       1  UNL1        0.0000
     37 H          -7.9417    0.9365   -1.4092 H       1  UNL1        0.0000
     38 H          -2.9335    2.6188   -1.0165 H       1  UNL1        0.0000
     39 H          -0.4796    2.5257   -1.1332 H       1  UNL1        0.0000
     40 H          -2.8765   -1.3756    0.5678 H       1  UNL1        0.0000
     41 H           1.3136   -0.6306    1.5213 H       1  UNL1        0.0000
     42 H           6.1620    1.5964   -0.7520 H       1  UNL1        0.0000
     43 H           9.3923   -0.9495   -0.1278 H       1  UNL1        0.0000
@<TRIPOS>BOND
     1     1     2    1
     2     2     3    2
     3     3     4    1
     4     4     5   ar
     5     5     6   ar
     6     6     7   ar
     7     7     8   ar
     8     7     9    1
     9     9    10   ar
    10    10    11   ar
    11    11    12   ar
    12    12    13   ar
    13    13    14   ar
    14    12    15    1
    15    15    16   ar
    16    16    17   ar
    17    17    18   ar
    18    18    19    1
    19    19    20   ar
    20    20    21   ar
    21    21    22   ar
    22    22    23   ar
    23    23    24   ar
    24    24    25   ar
    25    25    26   ar
    26    26    27   ar
    27    18    28   ar
    28    28    29   ar
    29    29    30   ar
    30    30    31   ar
    31    31    32   ar
    32     8     1    1
    33    14     9   ar
    34    32    15   ar
    35     8     4   ar
    36    27    19   ar
    37    32    28   ar
    38    27    23   ar
    39     1    33    1
    40     1    34    1
    41     2    35    1
    42     3    36    1
    43     5    37    1
    44    10    38    1
    45    11    39    1
    46    14    40    1
    47    16    41    1
    48    20    42    1
    49    22    43    1
