@<TRIPOS>MOLECULE
*****
 39 44 0 0 0
SMALL
GASTEIGER

@<TRIPOS>ATOM
      1 SI          5.5497    1.4265   -0.0872 Si      1  UNL1        0.0000
      2 C           7.3562    1.2169    0.5145 C.2     1  UNL1        0.0000
      3 C           7.5096    0.0734    1.2176 C.2     1  UNL1        0.0000
      4 C           6.3212   -0.7121    1.3528 C.ar    1  UNL1        0.0000
      5 C           6.1073   -1.9005    1.9960 C.ar    1  UNL1        0.0000
      6 S           4.4575   -2.3888    1.8385 S.2     1  UNL1        0.0000
      7 C           4.0303   -0.9960    0.9012 C.ar    1  UNL1        0.0000
      8 C           5.1393   -0.2164    0.7390 C.ar    1  UNL1        0.0000
      9 C           2.6998   -0.7972    0.3964 C.ar    1  UNL1        0.0000
     10 C           2.3363   -0.5856   -0.9173 C.ar    1  UNL1        0.0000
     11 C           0.9282   -0.4060   -1.0696 C.ar    1  UNL1        0.0000
     12 C           0.2477   -0.4799    0.1317 C.ar    1  UNL1        0.0000
     13 S           1.3365   -0.7682    1.4274 S.2     1  UNL1        0.0000
     14 C          -1.1692   -0.3467    0.3526 C.ar    1  UNL1        0.0000
     15 C          -1.9029   -0.3460    1.5250 C.ar    1  UNL1        0.0000
     16 C          -3.2707   -0.1819    1.1887 C.ar    1  UNL1        0.0000
     17 C          -3.3607   -0.0854   -0.1854 C.ar    1  UNL1        0.0000
     18 N          -2.0760   -0.1894   -0.6704 N.ar    1  UNL1        0.0000
     19 C          -4.5037    0.0868   -1.0352 C.ar    1  UNL1        0.0000
     20 S          -4.3658    0.1856   -2.7784 S.2     1  UNL1        0.0000
     21 C          -6.0680    0.3757   -3.0247 C.ar    1  UNL1        0.0000
     22 C          -6.6559    0.3578   -1.8160 C.ar    1  UNL1        0.0000
     23 O          -7.9888    0.4786   -1.5716 O.2     1  UNL1        0.0000
     24 C          -7.9796    0.3881   -0.1927 C.ar    1  UNL1        0.0000
     25 C          -6.7044    0.2217    0.3625 C.ar    1  UNL1        0.0000
     26 C          -5.8208    0.2024   -0.7353 C.ar    1  UNL1        0.0000
     27 H           5.4777    1.3849   -1.5699 H       1  UNL1        0.0000
     28 H           4.9202    2.6108    0.5474 H       1  UNL1        0.0000
     29 H           8.1048    1.9588    0.2879 H       1  UNL1        0.0000
     30 H           8.4542   -0.2344    1.6511 H       1  UNL1        0.0000
     31 H           6.8054   -2.5130    2.5490 H       1  UNL1        0.0000
     32 H           3.0419   -0.5723   -1.7394 H       1  UNL1        0.0000
     33 H           0.4551   -0.2322   -2.0272 H       1  UNL1        0.0000
     34 H          -1.5032   -0.4514    2.5260 H       1  UNL1        0.0000
     35 H          -4.0928   -0.1412    1.8899 H       1  UNL1        0.0000
     36 H          -1.8444   -0.1569   -1.6526 H       1  UNL1        0.0000
     37 H          -6.5288    0.4855   -3.9952 H       1  UNL1        0.0000
     38 H          -8.9613    0.4593    0.2574 H       1  UNL1        0.0000
     39 H          -6.4822    0.1304    1.4153 H       1  UNL1        0.0000
@<TRIPOS>BOND
     1     1     2    1
     2     2     3    2
     3     3     4    1
     4     4     5   ar
     5     5     6   ar
     6     6     7   ar
     7     7     8   ar
     8     7     9    1
     9     9    10   ar
    10    10    11   ar
    11    11    12   ar
    12    12    13   ar
    13    12    14    1
    14    14    15   ar
    15    15    16   ar
    16    16    17   ar
    17    17    18   ar
    18    17    19    1
    19    19    20   ar
    20    20    21   ar
    21    21    22   ar
    22    22    23   ar
    23    23    24   ar
    24    24    25   ar
    25    25    26   ar
    26     8     1    1
    27    13     9   ar
    28    18    14   ar
    29    26    19   ar
    30     8     4   ar
    31    26    22   ar
    32     1    27    1
    33     1    28    1
    34     2    29    1
    35     3    30    1
    36     5    31    1
    37    10    32    1
    38    11    33    1
    39    15    34    1
    40    16    35    1
    41    18    36    1
    42    21    37    1
    43    24    38    1
    44    25    39    1
