@<TRIPOS>MOLECULE
*****
 31 35 0 0 0
SMALL
GASTEIGER

@<TRIPOS>ATOM
      1 SI         -3.9330   -1.4568   -0.8128 Si      1  UNL1        0.0000
      2 C          -5.7211   -0.8372   -0.5145 C.2     1  UNL1        0.0000
      3 C          -5.7308    0.4415   -0.0784 C.2     1  UNL1        0.0000
      4 C          -4.4378    1.0385    0.0593 C.ar    1  UNL1        0.0000
      5 C          -4.0742    2.2889    0.4790 C.ar    1  UNL1        0.0000
      6 S          -2.3555    2.4626    0.4550 S.2     1  UNL1        0.0000
      7 C          -2.1003    0.8495   -0.1231 C.ar    1  UNL1        0.0000
      8 C          -3.3119    0.2398   -0.2783 C.ar    1  UNL1        0.0000
      9 C          -0.7850    0.3369   -0.3920 C.ar    1  UNL1        0.0000
     10 C          -0.3394   -0.2216   -1.5731 C.ar    1  UNL1        0.0000
     11 C           1.0193   -0.6486   -1.4928 C.ar    1  UNL1        0.0000
     12 C           1.5798   -0.3970   -0.2555 C.ar    1  UNL1        0.0000
     13 S           0.4424    0.3272    0.8009 S.2     1  UNL1        0.0000
     14 C           2.9134   -0.7140    0.1675 C.ar    1  UNL1        0.0000
     15 S           3.5921   -2.2940   -0.0197 S.2     1  UNL1        0.0000
     16 C           5.0909   -1.8467    0.6987 C.ar    1  UNL1        0.0000
     17 C           5.0204   -0.5375    1.0247 C.ar    1  UNL1        0.0000
     18 C           5.9423    0.3582    1.6162 C.ar    1  UNL1        0.0000
     19 C           5.4209    1.6498    1.7476 C.ar    1  UNL1        0.0000
     20 S           3.7801    1.8917    1.1650 S.2     1  UNL1        0.0000
     21 C           3.8284    0.1319    0.7413 C.ar    1  UNL1        0.0000
     22 H          -3.7092   -1.7510   -2.2509 H       1  UNL1        0.0000
     23 H          -3.5982   -2.5588    0.1228 H       1  UNL1        0.0000
     24 H          -6.5669   -1.4821   -0.6898 H       1  UNL1        0.0000
     25 H          -6.6411    0.9825    0.1535 H       1  UNL1        0.0000
     26 H          -4.6993    3.1100    0.8003 H       1  UNL1        0.0000
     27 H          -0.9515   -0.3119   -2.4624 H       1  UNL1        0.0000
     28 H           1.5595   -1.1085   -2.3119 H       1  UNL1        0.0000
     29 H           5.8975   -2.5559    0.8192 H       1  UNL1        0.0000
     30 H           6.9444    0.1013    1.9373 H       1  UNL1        0.0000
     31 H           5.9237    2.5111    2.1661 H       1  UNL1        0.0000
@<TRIPOS>BOND
     1     1     2    1
     2     2     3    2
     3     3     4    1
     4     4     5   ar
     5     5     6   ar
     6     6     7   ar
     7     7     8   ar
     8     7     9    1
     9     9    10   ar
    10    10    11   ar
    11    11    12   ar
    12    12    13   ar
    13    12    14    1
    14    14    15   ar
    15    15    16   ar
    16    16    17   ar
    17    17    18   ar
    18    18    19   ar
    19    19    20   ar
    20    20    21   ar
    21     8     1    1
    22    13     9   ar
    23    21    14   ar
    24     8     4   ar
    25    21    17   ar
    26     1    22    1
    27     1    23    1
    28     2    24    1
    29     3    25    1
    30     5    26    1
    31    10    27    1
    32    11    28    1
    33    16    29    1
    34    18    30    1
    35    19    31    1
