@<TRIPOS>MOLECULE
*****
 40 46 0 0 0
SMALL
GASTEIGER

@<TRIPOS>ATOM
      1 SI          1.9721    1.1161   -0.6784 Si      1  UNL1        0.0000
      2 C           3.0683   -0.3382   -0.0386 C.2     1  UNL1        0.0000
      3 C           2.3108   -1.3088    0.5230 C.2     1  UNL1        0.0000
      4 C           0.9202   -0.9981    0.4711 C.ar    1  UNL1        0.0000
      5 S          -0.3560   -1.9507    1.0458 S.2     1  UNL1        0.0000
      6 C          -1.5782   -0.7938    0.5381 C.ar    1  UNL1        0.0000
      7 C          -0.9144    0.2911   -0.0492 C.ar    1  UNL1        0.0000
      8 C           0.4655    0.1778   -0.0889 C.ar    1  UNL1        0.0000
      9 C          -1.7284    1.3627   -0.5328 C.ar    1  UNL1        0.0000
     10 C          -1.3754    2.5368   -1.1297 C.ar    1  UNL1        0.0000
     11 N          -2.5664    3.1823   -1.3885 N.ar    1  UNL1        0.0000
     12 C          -3.6289    2.4131   -0.9500 C.ar    1  UNL1        0.0000
     13 C          -3.1226    1.2547   -0.3996 C.ar    1  UNL1        0.0000
     14 C          -3.8724    0.2041    0.1669 C.ar    1  UNL1        0.0000
     15 C          -5.3007    0.1820    0.2534 C.ar    1  UNL1        0.0000
     16 C          -6.0073   -0.8840    0.8243 C.ar    1  UNL1        0.0000
     17 C          -5.2311   -1.9551    1.3246 C.ar    1  UNL1        0.0000
     18 N          -5.7372   -3.0571    1.9014 N.ar    1  UNL1        0.0000
     19 S          -4.4456   -4.0042    2.3187 S.2     1  UNL1        0.0000
     20 N          -3.1919   -3.0651    1.7922 N.ar    1  UNL1        0.0000
     21 C          -3.7125   -1.9500    1.2466 C.ar    1  UNL1        0.0000
     22 C          -3.0114   -0.8519    0.6523 C.ar    1  UNL1        0.0000
     23 C           4.5221   -0.3048   -0.1539 C.ar    1  UNL1        0.0000
     24 C           5.3296   -0.4755    0.9742 C.ar    1  UNL1        0.0000
     25 C           6.7169   -0.4257    0.8507 C.ar    1  UNL1        0.0000
     26 C           7.2581   -0.2110   -0.4043 C.ar    1  UNL1        0.0000
     27 N           6.5179   -0.0570   -1.5226 N.ar    1  UNL1        0.0000
     28 C           5.1729   -0.1159   -1.3725 C.ar    1  UNL1        0.0000
     29 H           2.0800    1.2449   -2.1551 H       1  UNL1        0.0000
     30 H           2.2455    2.3646    0.0794 H       1  UNL1        0.0000
     31 H           2.6926   -2.2235    0.9590 H       1  UNL1        0.0000
     32 H          -0.4373    2.9953   -1.4033 H       1  UNL1        0.0000
     33 H          -2.6515    4.0891   -1.8326 H       1  UNL1        0.0000
     34 H          -4.6379    2.7794   -1.0782 H       1  UNL1        0.0000
     35 H          -5.8769    1.0201   -0.1377 H       1  UNL1        0.0000
     36 H          -7.0890   -0.8943    0.8835 H       1  UNL1        0.0000
     37 H           4.8872   -0.6359    1.9553 H       1  UNL1        0.0000
     38 H           7.3596   -0.5470    1.7169 H       1  UNL1        0.0000
     39 H           8.3332   -0.1573   -0.5495 H       1  UNL1        0.0000
     40 H           4.6204   -0.0094   -2.3026 H       1  UNL1        0.0000
@<TRIPOS>BOND
     1     1     2    1
     2     2     3    2
     3     3     4    1
     4     4     5   ar
     5     5     6   ar
     6     6     7   ar
     7     7     8   ar
     8     7     9   ar
     9     9    10   ar
    10    10    11   ar
    11    11    12   ar
    12    12    13   ar
    13    13    14   ar
    14    14    15   ar
    15    15    16   ar
    16    16    17   ar
    17    17    18   ar
    18    18    19   ar
    19    19    20   ar
    20    20    21   ar
    21    21    22   ar
    22     2    23    1
    23    23    24   ar
    24    24    25   ar
    25    25    26   ar
    26    26    27   ar
    27    27    28   ar
    28     8     1    1
    29    13     9   ar
    30    22    14   ar
    31    28    23   ar
    32     8     4   ar
    33    21    17   ar
    34    22     6   ar
    35     1    29    1
    36     1    30    1
    37     3    31    1
    38    10    32    1
    39    11    33    1
    40    12    34    1
    41    15    35    1
    42    16    36    1
    43    24    37    1
    44    25    38    1
    45    26    39    1
    46    28    40    1
