@<TRIPOS>MOLECULE
*****
 44 50 0 0 0
SMALL
GASTEIGER

@<TRIPOS>ATOM
      1 SI         -5.7426   -0.2171    1.7928 Si      1  UNL1        0.0000
      2 C          -7.6485   -0.1048    1.6810 C.2     1  UNL1        0.0000
      3 C          -8.0561    0.1082    0.4097 C.2     1  UNL1        0.0000
      4 C          -7.0006    0.2044   -0.5511 C.ar    1  UNL1        0.0000
      5 C          -7.0420    0.4055   -1.9039 C.ar    1  UNL1        0.0000
      6 S          -5.4455    0.4311   -2.5638 S.2     1  UNL1        0.0000
      7 C          -4.7005    0.1498   -1.0278 C.ar    1  UNL1        0.0000
      8 C          -5.6702    0.0694   -0.0713 C.ar    1  UNL1        0.0000
      9 C          -3.2578    0.0755   -0.9284 C.ar    1  UNL1        0.0000
     10 C          -2.4706    1.0576   -0.3327 C.ar    1  UNL1        0.0000
     11 N          -1.1087    1.0469   -0.1761 N.ar    1  UNL1        0.0000
     12 C          -0.3318    0.0062   -0.6385 C.ar    1  UNL1        0.0000
     13 C           1.1130    0.0806   -0.4161 C.ar    1  UNL1        0.0000
     14 C           1.6439    0.7789    0.6759 C.ar    1  UNL1        0.0000
     15 C           3.0243    0.8403    0.8917 C.ar    1  UNL1        0.0000
     16 C           3.8851    0.1998    0.0073 C.ar    1  UNL1        0.0000
     17 N           3.4029   -0.4520   -1.0805 N.ar    1  UNL1        0.0000
     18 C           2.0555   -0.5012   -1.2584 C.ar    1  UNL1        0.0000
     19 C           5.3471    0.1983    0.1316 C.ar    1  UNL1        0.0000
     20 C           6.2043    0.1831   -1.0051 C.ar    1  UNL1        0.0000
     21 C           7.6180    0.1651   -0.9488 C.ar    1  UNL1        0.0000
     22 C           8.3279    0.1529    0.2586 C.ar    1  UNL1        0.0000
     23 C           7.5480    0.1562    1.4376 C.ar    1  UNL1        0.0000
     24 N           8.0405    0.1386    2.6858 N.ar    1  UNL1        0.0000
     25 S           6.7364    0.1382    3.7067 S.2     1  UNL1        0.0000
     26 N           5.4888    0.1675    2.6173 N.ar    1  UNL1        0.0000
     27 C           6.0315    0.1789    1.3847 C.ar    1  UNL1        0.0000
     28 C          -1.0142   -1.0786   -1.2644 C.ar    1  UNL1        0.0000
     29 N          -0.4837   -2.2113   -1.7629 N.ar    1  UNL1        0.0000
     30 S          -1.7360   -3.1235   -2.3455 S.2     1  UNL1        0.0000
     31 N          -3.0176   -2.1391   -1.9944 N.ar    1  UNL1        0.0000
     32 C          -2.5225   -1.0354   -1.4055 C.ar    1  UNL1        0.0000
     33 H          -5.1828    0.9092    2.5792 H       1  UNL1        0.0000
     34 H          -5.3042   -1.5689    2.2193 H       1  UNL1        0.0000
     35 H          -8.2622   -0.2113    2.5604 H       1  UNL1        0.0000
     36 H          -9.0991    0.1987    0.1280 H       1  UNL1        0.0000
     37 H          -7.8997    0.5389   -2.5479 H       1  UNL1        0.0000
     38 H          -2.9420    1.9558    0.0678 H       1  UNL1        0.0000
     39 H           0.9821    1.2812    1.3786 H       1  UNL1        0.0000
     40 H           3.3995    1.3946    1.7461 H       1  UNL1        0.0000
     41 H           1.7642   -1.0417   -2.1556 H       1  UNL1        0.0000
     42 H           5.7415    0.1832   -1.9956 H       1  UNL1        0.0000
     43 H           8.1742    0.1553   -1.8860 H       1  UNL1        0.0000
     44 H           9.4105    0.1348    0.2931 H       1  UNL1        0.0000
@<TRIPOS>BOND
     1     1     2    1
     2     2     3    2
     3     3     4    1
     4     4     5   ar
     5     5     6   ar
     6     6     7   ar
     7     7     8   ar
     8     7     9    1
     9     9    10   ar
    10    10    11   ar
    11    11    12   ar
    12    12    13    1
    13    13    14   ar
    14    14    15   ar
    15    15    16   ar
    16    16    17   ar
    17    17    18   ar
    18    16    19    1
    19    19    20   ar
    20    20    21   ar
    21    21    22   ar
    22    22    23   ar
    23    23    24   ar
    24    24    25   ar
    25    25    26   ar
    26    26    27   ar
    27    12    28   ar
    28    28    29   ar
    29    29    30   ar
    30    30    31   ar
    31    31    32   ar
    32     8     1    1
    33    32     9   ar
    34     8     4   ar
    35    18    13   ar
    36    27    19   ar
    37    32    28   ar
    38    27    23   ar
    39     1    33    1
    40     1    34    1
    41     2    35    1
    42     3    36    1
    43     5    37    1
    44    10    38    1
    45    14    39    1
    46    15    40    1
    47    18    41    1
    48    20    42    1
    49    21    43    1
    50    22    44    1
