@<TRIPOS>MOLECULE
*****
 46 52 0 0 0
SMALL
GASTEIGER

@<TRIPOS>ATOM
      1 SI          5.6273    0.5098   -1.2505 Si      1  UNL1        0.0000
      2 C           7.4213    0.9402   -0.7241 C.2     1  UNL1        0.0000
      3 C           7.5515    0.9407    0.6206 C.2     1  UNL1        0.0000
      4 C           6.3544    0.6301    1.3397 C.ar    1  UNL1        0.0000
      5 C           6.1180    0.5564    2.6852 C.ar    1  UNL1        0.0000
      6 S           4.4655    0.1557    2.9910 S.2     1  UNL1        0.0000
      7 C           4.0690    0.0777    1.3069 C.ar    1  UNL1        0.0000
      8 C           5.1885    0.3524    0.5761 C.ar    1  UNL1        0.0000
      9 C           2.7489   -0.2463    0.8576 C.ar    1  UNL1        0.0000
     10 S           1.3436    0.6495    1.3509 S.2     1  UNL1        0.0000
     11 C           0.2464   -0.3074    0.4024 C.ar    1  UNL1        0.0000
     12 C          -1.1646   -0.0829    0.3471 C.ar    1  UNL1        0.0000
     13 S          -2.0953   -0.1155   -1.1189 S.2     1  UNL1        0.0000
     14 C          -3.6040    0.2436   -0.3235 C.ar    1  UNL1        0.0000
     15 C          -4.8507    0.3839   -1.0764 C.ar    1  UNL1        0.0000
     16 C          -5.7259    1.4430   -0.7924 C.ar    1  UNL1        0.0000
     17 C          -6.9248    1.5893   -1.4952 C.ar    1  UNL1        0.0000
     18 C          -7.2658    0.6759   -2.4897 C.ar    1  UNL1        0.0000
     19 C          -6.4098   -0.3835   -2.7814 C.ar    1  UNL1        0.0000
     20 C          -5.2103   -0.5292   -2.0788 C.ar    1  UNL1        0.0000
     21 C          -3.3285    0.3706    0.9954 C.ar    1  UNL1        0.0000
     22 C          -3.9670    0.6278    2.2370 C.ar    1  UNL1        0.0000
     23 C          -2.9713    0.5861    3.2347 C.ar    1  UNL1        0.0000
     24 N          -1.7178    0.3098    2.6957 N.ar    1  UNL1        0.0000
     25 C          -2.0118    0.1963    1.3646 C.ar    1  UNL1        0.0000
     26 C           0.9746   -1.2501   -0.2408 C.ar    1  UNL1        0.0000
     27 N           0.5241   -2.2285   -1.0837 N.ar    1  UNL1        0.0000
     28 C           1.7083   -2.8862   -1.4044 C.ar    1  UNL1        0.0000
     29 C           2.8173   -2.3038   -0.7567 C.ar    1  UNL1        0.0000
     30 C           2.3300   -1.2138    0.0116 C.ar    1  UNL1        0.0000
     31 H           5.6094   -0.7743   -1.9954 H       1  UNL1        0.0000
     32 H           4.9991    1.6650   -1.9384 H       1  UNL1        0.0000
     33 H           8.1791    1.1451   -1.4628 H       1  UNL1        0.0000
     34 H           8.4850    1.1607    1.1259 H       1  UNL1        0.0000
     35 H           6.8009    0.7152    3.5078 H       1  UNL1        0.0000
     36 H          -5.4744    2.1734   -0.0264 H       1  UNL1        0.0000
     37 H          -7.5895    2.4183   -1.2662 H       1  UNL1        0.0000
     38 H          -8.1982    0.7893   -3.0366 H       1  UNL1        0.0000
     39 H          -6.6755   -1.0998   -3.5546 H       1  UNL1        0.0000
     40 H          -4.5661   -1.3721   -2.3170 H       1  UNL1        0.0000
     41 H          -5.0182    0.8159    2.4112 H       1  UNL1        0.0000
     42 H          -3.0605    0.7315    4.3038 H       1  UNL1        0.0000
     43 H          -0.8099    0.2169    3.1373 H       1  UNL1        0.0000
     44 H          -0.4316   -2.3980   -1.3764 H       1  UNL1        0.0000
     45 H           1.6699   -3.7363   -2.0737 H       1  UNL1        0.0000
     46 H           3.8394   -2.6503   -0.8383 H       1  UNL1        0.0000
@<TRIPOS>BOND
     1     1     2    1
     2     2     3    2
     3     3     4    1
     4     4     5   ar
     5     5     6   ar
     6     6     7   ar
     7     7     8   ar
     8     7     9    1
     9     9    10   ar
    10    10    11   ar
    11    11    12    1
    12    12    13   ar
    13    13    14   ar
    14    14    15    1
    15    15    16   ar
    16    16    17   ar
    17    17    18   ar
    18    18    19   ar
    19    19    20   ar
    20    14    21   ar
    21    21    22   ar
    22    22    23   ar
    23    23    24   ar
    24    24    25   ar
    25    11    26   ar
    26    26    27   ar
    27    27    28   ar
    28    28    29   ar
    29    29    30   ar
    30     8     1    1
    31    30     9   ar
    32     8     4   ar
    33    25    12   ar
    34    30    26   ar
    35    20    15   ar
    36    25    21   ar
    37     1    31    1
    38     1    32    1
    39     2    33    1
    40     3    34    1
    41     5    35    1
    42    16    36    1
    43    17    37    1
    44    18    38    1
    45    19    39    1
    46    20    40    1
    47    22    41    1
    48    23    42    1
    49    24    43    1
    50    27    44    1
    51    28    45    1
    52    29    46    1
