@<TRIPOS>MOLECULE
*****
 44 50 0 0 0
SMALL
GASTEIGER

@<TRIPOS>ATOM
      1 SI         -5.4305   -1.0810   -1.2280 Si      1  UNL1        0.0000
      2 C          -7.1622   -0.4114   -1.7077 C.2     1  UNL1        0.0000
      3 C          -7.2718    0.9078   -1.4365 C.2     1  UNL1        0.0000
      4 C          -6.1026    1.5018   -0.8648 C.ar    1  UNL1        0.0000
      5 C          -5.8539    2.7916   -0.4809 C.ar    1  UNL1        0.0000
      6 S          -4.2476    2.9426    0.1401 S.2     1  UNL1        0.0000
      7 C          -3.8911    1.2685   -0.1077 C.ar    1  UNL1        0.0000
      8 C          -4.9841    0.6543   -0.6451 C.ar    1  UNL1        0.0000
      9 C          -2.6226    0.7090    0.2463 C.ar    1  UNL1        0.0000
     10 S          -1.1633    1.1615   -0.5466 S.2     1  UNL1        0.0000
     11 C          -0.1977    0.0737    0.3801 C.ar    1  UNL1        0.0000
     12 C           1.2107   -0.0751    0.1935 C.ar    1  UNL1        0.0000
     13 S           2.3095    1.2717    0.2598 S.2     1  UNL1        0.0000
     14 C           3.7225    0.3044   -0.0380 C.ar    1  UNL1        0.0000
     15 C           5.0891    0.8298   -0.1175 C.ar    1  UNL1        0.0000
     16 C           5.4013    2.1784    0.0444 C.ar    1  UNL1        0.0000
     17 C           6.7319    2.5848   -0.0483 C.ar    1  UNL1        0.0000
     18 C           7.7178    1.6411   -0.2994 C.ar    1  UNL1        0.0000
     19 C           7.3311    0.3221   -0.4484 C.ar    1  UNL1        0.0000
     20 N           6.0501   -0.1026   -0.3642 N.ar    1  UNL1        0.0000
     21 C           3.3065   -0.9771   -0.1776 C.ar    1  UNL1        0.0000
     22 N           4.0813   -2.0738   -0.4305 N.ar    1  UNL1        0.0000
     23 C           3.1286   -3.0852   -0.4781 C.ar    1  UNL1        0.0000
     24 C           1.8292   -2.5811   -0.2566 C.ar    1  UNL1        0.0000
     25 C           1.9497   -1.1799   -0.0512 C.ar    1  UNL1        0.0000
     26 C          -0.9752   -0.6050    1.2816 C.ar    1  UNL1        0.0000
     27 S          -0.5799   -1.8411    2.5445 S.2     1  UNL1        0.0000
     28 C          -2.2979   -1.8125    2.9062 C.ar    1  UNL1        0.0000
     29 C          -3.0785   -0.9420    2.1392 C.ar    1  UNL1        0.0000
     30 C          -2.3164   -0.2276    1.1767 C.ar    1  UNL1        0.0000
     31 H          -4.6926   -1.5353   -2.4322 H       1  UNL1        0.0000
     32 H          -5.5444   -2.0722   -0.1285 H       1  UNL1        0.0000
     33 H          -7.9061   -1.0621   -2.1382 H       1  UNL1        0.0000
     34 H          -8.1699    1.4815   -1.6348 H       1  UNL1        0.0000
     35 H          -6.5029    3.6548   -0.5259 H       1  UNL1        0.0000
     36 H           4.6363    2.9215    0.2409 H       1  UNL1        0.0000
     37 H           6.9924    3.6324    0.0754 H       1  UNL1        0.0000
     38 H           8.7609    1.9264   -0.3769 H       1  UNL1        0.0000
     39 H           8.0647   -0.4545   -0.6461 H       1  UNL1        0.0000
     40 H           5.0919   -2.0717   -0.5452 H       1  UNL1        0.0000
     41 H           3.4514   -4.1001   -0.6705 H       1  UNL1        0.0000
     42 H           0.9237   -3.1730   -0.2499 H       1  UNL1        0.0000
     43 H          -2.6431   -2.4602    3.7008 H       1  UNL1        0.0000
     44 H          -4.1461   -0.8354    2.2907 H       1  UNL1        0.0000
@<TRIPOS>BOND
     1     1     2    1
     2     2     3    2
     3     3     4    1
     4     4     5   ar
     5     5     6   ar
     6     6     7   ar
     7     7     8   ar
     8     7     9    1
     9     9    10   ar
    10    10    11   ar
    11    11    12    1
    12    12    13   ar
    13    13    14   ar
    14    14    15    1
    15    15    16   ar
    16    16    17   ar
    17    17    18   ar
    18    18    19   ar
    19    19    20   ar
    20    14    21   ar
    21    21    22   ar
    22    22    23   ar
    23    23    24   ar
    24    24    25   ar
    25    11    26   ar
    26    26    27   ar
    27    27    28   ar
    28    28    29   ar
    29    29    30   ar
    30     8     1    1
    31    30     9   ar
    32     8     4   ar
    33    25    12   ar
    34    30    26   ar
    35    20    15   ar
    36    25    21   ar
    37     1    31    1
    38     1    32    1
    39     2    33    1
    40     3    34    1
    41     5    35    1
    42    16    36    1
    43    17    37    1
    44    18    38    1
    45    19    39    1
    46    22    40    1
    47    23    41    1
    48    24    42    1
    49    28    43    1
    50    29    44    1
