@<TRIPOS>MOLECULE
*****
 43 49 0 0 0
SMALL
GASTEIGER

@<TRIPOS>ATOM
      1 SI         -4.9949    1.3718   -0.6463 Si      1  UNL1        0.0000
      2 C          -6.7461    1.7315    0.0455 C.2     1  UNL1        0.0000
      3 C          -6.8804    1.2730    1.3095 C.2     1  UNL1        0.0000
      4 C          -5.7171    0.6327    1.8418 C.ar    1  UNL1        0.0000
      5 C          -5.4890    0.0697    3.0684 C.ar    1  UNL1        0.0000
      6 S          -3.8779   -0.5524    3.1623 S.2     1  UNL1        0.0000
      7 C          -3.4948   -0.0654    1.5497 C.ar    1  UNL1        0.0000
      8 C          -4.5793    0.5483    0.9964 C.ar    1  UNL1        0.0000
      9 C          -2.2176   -0.3279    0.9734 C.ar    1  UNL1        0.0000
     10 S          -0.7676    0.5069    1.4084 S.2     1  UNL1        0.0000
     11 C           0.2151   -0.3566    0.2560 C.ar    1  UNL1        0.0000
     12 C           1.6102   -0.0996    0.0872 C.ar    1  UNL1        0.0000
     13 S           2.7443    0.0068    1.3912 S.2     1  UNL1        0.0000
     14 C           4.1165    0.2821    0.3489 C.ar    1  UNL1        0.0000
     15 C           5.4645    0.4438    0.8325 C.ar    1  UNL1        0.0000
     16 C           6.6301    0.1148    0.1619 C.ar    1  UNL1        0.0000
     17 C           7.8062    0.4114    0.9117 C.ar    1  UNL1        0.0000
     18 C           7.5073    0.9625    2.1356 C.ar    1  UNL1        0.0000
     19 S           5.8229    1.1169    2.3728 S.2     1  UNL1        0.0000
     20 C           3.6444    0.2875   -0.9212 C.ar    1  UNL1        0.0000
     21 C           4.0723    0.4600   -2.2662 C.ar    1  UNL1        0.0000
     22 C           2.9325    0.3444   -3.0884 C.ar    1  UNL1        0.0000
     23 N           1.7832    0.1114   -2.3390 N.ar    1  UNL1        0.0000
     24 C           2.2877    0.0854   -1.0679 C.ar    1  UNL1        0.0000
     25 C          -0.5964   -1.2321   -0.3827 C.ar    1  UNL1        0.0000
     26 C          -0.5789   -2.2530   -1.3712 C.ar    1  UNL1        0.0000
     27 C          -1.8959   -2.7460   -1.4863 C.ar    1  UNL1        0.0000
     28 N          -2.7641   -2.1023   -0.6079 N.ar    1  UNL1        0.0000
     29 C          -1.9189   -1.2205    0.0053 C.ar    1  UNL1        0.0000
     30 H          -5.0670    0.4133   -1.7781 H       1  UNL1        0.0000
     31 H          -4.2602    2.6328   -0.9113 H       1  UNL1        0.0000
     32 H          -7.4816    2.2454   -0.5523 H       1  UNL1        0.0000
     33 H          -7.7925    1.3798    1.8857 H       1  UNL1        0.0000
     34 H          -6.1544   -0.0147    3.9161 H       1  UNL1        0.0000
     35 H           6.6452   -0.3326   -0.8243 H       1  UNL1        0.0000
     36 H           8.8173    0.2273    0.5699 H       1  UNL1        0.0000
     37 H           8.1958    1.2824    2.9056 H       1  UNL1        0.0000
     38 H           5.0752    0.6584   -2.6199 H       1  UNL1        0.0000
     39 H           2.8492    0.4213   -4.1651 H       1  UNL1        0.0000
     40 H           0.8177   -0.0026   -2.6249 H       1  UNL1        0.0000
     41 H           0.2736   -2.6165   -1.9306 H       1  UNL1        0.0000
     42 H          -2.2841   -3.5313   -2.1230 H       1  UNL1        0.0000
     43 H          -3.7525   -2.2399   -0.4292 H       1  UNL1        0.0000
@<TRIPOS>BOND
     1     1     2    1
     2     2     3    2
     3     3     4    1
     4     4     5   ar
     5     5     6   ar
     6     6     7   ar
     7     7     8   ar
     8     7     9    1
     9     9    10   ar
    10    10    11   ar
    11    11    12    1
    12    12    13   ar
    13    13    14   ar
    14    14    15    1
    15    15    16   ar
    16    16    17   ar
    17    17    18   ar
    18    18    19   ar
    19    14    20   ar
    20    20    21   ar
    21    21    22   ar
    22    22    23   ar
    23    23    24   ar
    24    11    25   ar
    25    25    26   ar
    26    26    27   ar
    27    27    28   ar
    28    28    29   ar
    29     8     1    1
    30    29     9   ar
    31     8     4   ar
    32    24    12   ar
    33    29    25   ar
    34    19    15   ar
    35    24    20   ar
    36     1    30    1
    37     1    31    1
    38     2    32    1
    39     3    33    1
    40     5    34    1
    41    16    35    1
    42    17    36    1
    43    18    37    1
    44    21    38    1
    45    22    39    1
    46    23    40    1
    47    26    41    1
    48    27    42    1
    49    28    43    1
