@<TRIPOS>MOLECULE
*****
 45 50 0 0 0
SMALL
GASTEIGER

@<TRIPOS>ATOM
      1 SI         -6.3211   -0.3799   -1.6303 Si      1  UNL1        0.0000
      2 C          -8.1317   -0.0251   -1.1169 C.2     1  UNL1        0.0000
      3 C          -8.2174    0.2868    0.1947 C.2     1  UNL1        0.0000
      4 C          -6.9706    0.2839    0.8966 C.ar    1  UNL1        0.0000
      5 C          -6.6881    0.5543    2.2061 C.ar    1  UNL1        0.0000
      6 S          -4.9970    0.4026    2.5071 S.2     1  UNL1        0.0000
      7 C          -4.6271   -0.0287    0.8584 C.ar    1  UNL1        0.0000
      8 C          -3.3017   -0.3133    0.4596 C.2     1  UNL1        0.0000
      9 SI         -1.8554    0.8667    0.6763 Si      1  UNL1        0.0000
     10 C          -0.7533   -0.4534   -0.1787 C.2     1  UNL1        0.0000
     11 C          -1.5068   -1.5249   -0.5093 C.2     1  UNL1        0.0000
     12 C          -2.9180   -1.4490   -0.1564 C.2     1  UNL1        0.0000
     13 C           0.6525   -0.2777   -0.4257 C.2     1  UNL1        0.0000
     14 SI          1.8746    0.4426    0.8627 Si      1  UNL1        0.0000
     15 C           3.2415    0.2009   -0.4125 C.2     1  UNL1        0.0000
     16 C           2.7524   -0.3315   -1.5507 C.2     1  UNL1        0.0000
     17 C           1.3216   -0.6003   -1.5543 C.2     1  UNL1        0.0000
     18 C           4.6147    0.5645   -0.1440 C.ar    1  UNL1        0.0000
     19 C           5.0948    1.8777    0.0924 C.ar    1  UNL1        0.0000
     20 C           6.4776    2.2017    0.3459 C.ar    1  UNL1        0.0000
     21 C           7.5260    1.2527    0.3884 C.ar    1  UNL1        0.0000
     22 C           7.0296   -0.0213    0.1502 C.ar    1  UNL1        0.0000
     23 C           7.7416   -1.1898    0.1159 C.ar    1  UNL1        0.0000
     24 O           6.8927   -2.2328   -0.1393 O.2     1  UNL1        0.0000
     25 C           5.6307   -1.7168   -0.2676 C.ar    1  UNL1        0.0000
     26 C           5.6659   -0.3554   -0.1032 C.ar    1  UNL1        0.0000
     27 C          -5.8030   -0.0451    0.1572 C.ar    1  UNL1        0.0000
     28 H          -6.1613   -1.7949   -2.0517 H       1  UNL1        0.0000
     29 H          -5.8458    0.6352   -2.6036 H       1  UNL1        0.0000
     30 H          -8.9326   -0.0846   -1.8358 H       1  UNL1        0.0000
     31 H          -9.1533    0.5230    0.6878 H       1  UNL1        0.0000
     32 H          -7.3611    0.8303    3.0055 H       1  UNL1        0.0000
     33 H          -1.9604    2.0968   -0.1512 H       1  UNL1        0.0000
     34 H          -1.4351    1.0653    2.0885 H       1  UNL1        0.0000
     35 H          -1.1185   -2.4083   -1.0029 H       1  UNL1        0.0000
     36 H          -3.5788   -2.2775   -0.3826 H       1  UNL1        0.0000
     37 H           1.5932    1.8766    1.1364 H       1  UNL1        0.0000
     38 H           2.0154   -0.4401    2.0483 H       1  UNL1        0.0000
     39 H           3.3530   -0.5516   -2.4258 H       1  UNL1        0.0000
     40 H           0.8543   -1.0293   -2.4330 H       1  UNL1        0.0000
     41 H           4.3861    2.7071    0.0717 H       1  UNL1        0.0000
     42 H           6.7279    3.2508    0.5115 H       1  UNL1        0.0000
     43 H           8.5582    1.5083    0.5794 H       1  UNL1        0.0000
     44 H           8.7809   -1.4565    0.2438 H       1  UNL1        0.0000
     45 H           4.8527   -2.4400   -0.4670 H       1  UNL1        0.0000
@<TRIPOS>BOND
     1     1     2    1
     2     2     3    2
     3     3     4    1
     4     4     5   ar
     5     5     6   ar
     6     6     7   ar
     7     7     8    1
     8     8     9    1
     9     9    10    1
    10    10    11    2
    11    11    12    1
    12    10    13    1
    13    13    14    1
    14    14    15    1
    15    15    16    2
    16    16    17    1
    17    15    18    1
    18    18    19   ar
    19    19    20   ar
    20    20    21   ar
    21    21    22   ar
    22    22    23   ar
    23    23    24   ar
    24    24    25   ar
    25    25    26   ar
    26     7    27   ar
    27    27     1    1
    28    27     4   ar
    29    12     8    2
    30    17    13    2
    31    26    18   ar
    32    26    22   ar
    33     1    28    1
    34     1    29    1
    35     2    30    1
    36     3    31    1
    37     5    32    1
    38     9    33    1
    39     9    34    1
    40    11    35    1
    41    12    36    1
    42    14    37    1
    43    14    38    1
    44    16    39    1
    45    17    40    1
    46    19    41    1
    47    20    42    1
    48    21    43    1
    49    23    44    1
    50    25    45    1
