@<TRIPOS>MOLECULE
*****
 44 50 0 0 0
SMALL
GASTEIGER

@<TRIPOS>ATOM
      1 SI         -6.0019   -1.3588   -0.9409 Si      1  UNL1        0.0000
      2 C          -7.8199   -0.7671   -1.0600 C.2     1  UNL1        0.0000
      3 C          -8.0017    0.3956   -0.3969 C.2     1  UNL1        0.0000
      4 C          -6.8286    0.9183    0.2339 C.ar    1  UNL1        0.0000
      5 C          -6.6476    2.0560    0.9691 C.ar    1  UNL1        0.0000
      6 S          -5.0078    2.1918    1.4854 S.2     1  UNL1        0.0000
      7 C          -4.5227    0.7068    0.7116 C.ar    1  UNL1        0.0000
      8 C          -3.1925    0.2394    0.8007 C.2     1  UNL1        0.0000
      9 SI         -1.6802    1.2339    0.2620 Si      1  UNL1        0.0000
     10 C          -0.6396   -0.2653    0.7399 C.2     1  UNL1        0.0000
     11 C          -1.4097   -1.2675    1.2094 C.2     1  UNL1        0.0000
     12 C          -2.8392   -0.9853    1.2415 C.2     1  UNL1        0.0000
     13 C           0.7587   -0.3189    0.5961 C.ar    1  UNL1        0.0000
     14 S           1.8480    0.7316    1.4224 S.2     1  UNL1        0.0000
     15 C           3.2520    0.0115    0.7255 C.ar    1  UNL1        0.0000
     16 C           4.5772    0.4764    1.0068 C.ar    1  UNL1        0.0000
     17 S           5.1521    0.7811    2.6248 S.2     1  UNL1        0.0000
     18 C           6.7395    1.2519    2.1011 C.ar    1  UNL1        0.0000
     19 C           6.7715    1.1650    0.7568 C.ar    1  UNL1        0.0000
     20 N           7.8283    1.4520   -0.0567 N.ar    1  UNL1        0.0000
     21 C           7.2803    1.1948   -1.3120 C.ar    1  UNL1        0.0000
     22 C           5.9372    0.7713   -1.2162 C.ar    1  UNL1        0.0000
     23 C           5.6016    0.7446    0.1644 C.ar    1  UNL1        0.0000
     24 C           2.8349   -0.9862   -0.0940 C.ar    1  UNL1        0.0000
     25 C           3.5052   -1.9382   -0.9101 C.ar    1  UNL1        0.0000
     26 C           2.6249   -2.7897   -1.5852 C.ar    1  UNL1        0.0000
     27 S           0.9137   -2.5290   -1.2946 S.2     1  UNL1        0.0000
     28 C           1.4571   -1.1989   -0.1903 C.ar    1  UNL1        0.0000
     29 C          -5.6268    0.1722    0.1035 C.ar    1  UNL1        0.0000
     30 H          -5.9141   -2.6384   -0.1924 H       1  UNL1        0.0000
     31 H          -5.3638   -1.3553   -2.2811 H       1  UNL1        0.0000
     32 H          -8.5533   -1.3391   -1.6048 H       1  UNL1        0.0000
     33 H          -8.9580    0.9028   -0.3408 H       1  UNL1        0.0000
     34 H          -7.3677    2.8159    1.2376 H       1  UNL1        0.0000
     35 H          -1.4153    2.4124    1.1286 H       1  UNL1        0.0000
     36 H          -1.6569    1.4899   -1.2028 H       1  UNL1        0.0000
     37 H          -1.0327   -2.2268    1.5444 H       1  UNL1        0.0000
     38 H          -3.5342   -1.7321    1.6063 H       1  UNL1        0.0000
     39 H           7.5134    1.5525    2.7930 H       1  UNL1        0.0000
     40 H           8.7522    1.7713    0.2080 H       1  UNL1        0.0000
     41 H           7.8945    1.3420   -2.1913 H       1  UNL1        0.0000
     42 H           5.2987    0.5259   -2.0548 H       1  UNL1        0.0000
     43 H           4.5806   -2.0205   -1.0129 H       1  UNL1        0.0000
     44 H           2.8927   -3.5896   -2.2622 H       1  UNL1        0.0000
@<TRIPOS>BOND
     1     1     2    1
     2     2     3    2
     3     3     4    1
     4     4     5   ar
     5     5     6   ar
     6     6     7   ar
     7     7     8    1
     8     8     9    1
     9     9    10    1
    10    10    11    2
    11    11    12    1
    12    10    13    1
    13    13    14   ar
    14    14    15   ar
    15    15    16    1
    16    16    17   ar
    17    17    18   ar
    18    18    19   ar
    19    19    20   ar
    20    20    21   ar
    21    21    22   ar
    22    22    23   ar
    23    15    24   ar
    24    24    25   ar
    25    25    26   ar
    26    26    27   ar
    27    27    28   ar
    28     7    29   ar
    29    29     1    1
    30    29     4   ar
    31    12     8    2
    32    28    13   ar
    33    23    16   ar
    34    28    24   ar
    35    23    19   ar
    36     1    30    1
    37     1    31    1
    38     2    32    1
    39     3    33    1
    40     5    34    1
    41     9    35    1
    42     9    36    1
    43    11    37    1
    44    12    38    1
    45    18    39    1
    46    20    40    1
    47    21    41    1
    48    22    42    1
    49    25    43    1
    50    26    44    1
