@<TRIPOS>MOLECULE
*****
 43 48 0 0 0
SMALL
GASTEIGER

@<TRIPOS>ATOM
      1 SI          6.2607    0.3165    0.2392 Si      1  UNL1        0.0000
      2 C           7.6293   -1.0158    0.1687 C.2     1  UNL1        0.0000
      3 C           7.1254   -2.2129   -0.2008 C.2     1  UNL1        0.0000
      4 C           5.7165   -2.2202   -0.4528 C.ar    1  UNL1        0.0000
      5 C           4.8918   -3.2460   -0.8231 C.ar    1  UNL1        0.0000
      6 S           3.2658   -2.6929   -0.9697 S.2     1  UNL1        0.0000
      7 C           3.6712   -1.0555   -0.5492 C.ar    1  UNL1        0.0000
      8 C           2.6654   -0.0313   -0.5025 C.ar    1  UNL1        0.0000
      9 C           2.7589    1.3392   -0.6478 C.ar    1  UNL1        0.0000
     10 C           1.4555    1.8837   -0.5095 C.ar    1  UNL1        0.0000
     11 C           0.5829    0.8392   -0.2769 C.ar    1  UNL1        0.0000
     12 N           1.3330   -0.3132   -0.3018 N.ar    1  UNL1        0.0000
     13 C          -0.8315    0.8247   -0.0678 C.ar    1  UNL1        0.0000
     14 S          -1.8583   -0.4810   -0.5746 S.2     1  UNL1        0.0000
     15 C          -3.3208    0.2778   -0.0052 C.ar    1  UNL1        0.0000
     16 C          -4.6289   -0.3535   -0.1825 C.ar    1  UNL1        0.0000
     17 C          -5.7236    0.4107   -0.6136 C.ar    1  UNL1        0.0000
     18 C          -6.9825   -0.1724   -0.7812 C.ar    1  UNL1        0.0000
     19 C          -7.1638   -1.5276   -0.5164 C.ar    1  UNL1        0.0000
     20 C          -6.0881   -2.2997   -0.0838 C.ar    1  UNL1        0.0000
     21 C          -4.8289   -1.7163    0.0829 C.ar    1  UNL1        0.0000
     22 C          -2.9571    1.4581    0.5485 C.ar    1  UNL1        0.0000
     23 C          -3.5131    2.5801    1.2175 C.ar    1  UNL1        0.0000
     24 C          -2.4463    3.4441    1.5394 C.ar    1  UNL1        0.0000
     25 N          -1.2247    2.9297    1.1120 N.ar    1  UNL1        0.0000
     26 C          -1.6109    1.7564    0.5259 C.ar    1  UNL1        0.0000
     27 C           5.0131   -0.9912   -0.3014 C.ar    1  UNL1        0.0000
     28 H           6.0762    0.8023    1.6297 H       1  UNL1        0.0000
     29 H           6.5028    1.3793   -0.7691 H       1  UNL1        0.0000
     30 H           8.6526   -0.7751    0.4071 H       1  UNL1        0.0000
     31 H           7.7316   -3.1058   -0.3013 H       1  UNL1        0.0000
     32 H           5.1352   -4.2822   -1.0108 H       1  UNL1        0.0000
     33 H           3.6576    1.9021   -0.8587 H       1  UNL1        0.0000
     34 H           1.1922    2.9290   -0.6011 H       1  UNL1        0.0000
     35 H           0.9592   -1.2447   -0.1802 H       1  UNL1        0.0000
     36 H          -5.6014    1.4687   -0.8354 H       1  UNL1        0.0000
     37 H          -7.8191    0.4327   -1.1207 H       1  UNL1        0.0000
     38 H          -8.1425   -1.9818   -0.6465 H       1  UNL1        0.0000
     39 H          -6.2273   -3.3569    0.1270 H       1  UNL1        0.0000
     40 H          -4.0084   -2.3377    0.4340 H       1  UNL1        0.0000
     41 H          -4.5532    2.7538    1.4597 H       1  UNL1        0.0000
     42 H          -2.4618    4.3946    2.0571 H       1  UNL1        0.0000
     43 H          -0.2845    3.2907    1.2126 H       1  UNL1        0.0000
@<TRIPOS>BOND
     1     1     2    1
     2     2     3    2
     3     3     4    1
     4     4     5   ar
     5     5     6   ar
     6     6     7   ar
     7     7     8    1
     8     8     9   ar
     9     9    10   ar
    10    10    11   ar
    11    11    12   ar
    12    11    13    1
    13    13    14   ar
    14    14    15   ar
    15    15    16    1
    16    16    17   ar
    17    17    18   ar
    18    18    19   ar
    19    19    20   ar
    20    20    21   ar
    21    15    22   ar
    22    22    23   ar
    23    23    24   ar
    24    24    25   ar
    25    25    26   ar
    26     7    27   ar
    27    27     1    1
    28    27     4   ar
    29    12     8   ar
    30    26    13   ar
    31    21    16   ar
    32    26    22   ar
    33     1    28    1
    34     1    29    1
    35     2    30    1
    36     3    31    1
    37     5    32    1
    38     9    33    1
    39    10    34    1
    40    12    35    1
    41    17    36    1
    42    18    37    1
    43    19    38    1
    44    20    39    1
    45    21    40    1
    46    23    41    1
    47    24    42    1
    48    25    43    1
