@<TRIPOS>MOLECULE
*****
 42 48 0 0 0
SMALL
GASTEIGER

@<TRIPOS>ATOM
      1 SI         -4.1594    1.5960    0.4489 Si      1  UNL1        0.0000
      2 C          -5.9147    2.3668    0.5215 C.2     1  UNL1        0.0000
      3 C          -6.8083    1.6147   -0.1570 C.2     1  UNL1        0.0000
      4 C          -6.2643    0.4400   -0.7661 C.ar    1  UNL1        0.0000
      5 C          -6.8676   -0.5377   -1.5080 C.ar    1  UNL1        0.0000
      6 S          -5.7177   -1.7345   -1.9830 S.2     1  UNL1        0.0000
      7 C          -4.3982   -0.9322   -1.1948 C.ar    1  UNL1        0.0000
      8 C          -3.0562   -1.4499   -1.2203 C.ar    1  UNL1        0.0000
      9 C          -2.5991   -2.6985   -1.6036 C.ar    1  UNL1        0.0000
     10 C          -1.1944   -2.7056   -1.4288 C.ar    1  UNL1        0.0000
     11 C          -0.8338   -1.4571   -0.9550 C.ar    1  UNL1        0.0000
     12 O          -1.9727   -0.7033   -0.8305 O.2     1  UNL1        0.0000
     13 C           0.4632   -0.9437   -0.6232 C.ar    1  UNL1        0.0000
     14 S           1.8799   -1.9438   -0.4843 S.2     1  UNL1        0.0000
     15 C           2.9293   -0.6236   -0.0703 C.ar    1  UNL1        0.0000
     16 C           4.3261   -0.7494    0.2147 C.ar    1  UNL1        0.0000
     17 S           5.3423   -1.9427   -0.5618 S.2     1  UNL1        0.0000
     18 C           6.7770   -1.4522    0.2791 C.ar    1  UNL1        0.0000
     19 C           6.4456   -0.4347    1.0970 C.ar    1  UNL1        0.0000
     20 N           7.2808    0.2361    1.9420 N.ar    1  UNL1        0.0000
     21 C           6.4029    1.1485    2.5216 C.ar    1  UNL1        0.0000
     22 C           5.0935    1.0008    2.0161 C.ar    1  UNL1        0.0000
     23 C           5.1224   -0.0528    1.0610 C.ar    1  UNL1        0.0000
     24 C           2.1782    0.4988   -0.0649 C.ar    1  UNL1        0.0000
     25 O           2.5924    1.7745    0.1833 O.2     1  UNL1        0.0000
     26 C           1.3991    2.4507    0.0206 C.ar    1  UNL1        0.0000
     27 C           0.3163    1.6296   -0.3111 C.ar    1  UNL1        0.0000
     28 C           0.8466    0.3279   -0.3650 C.ar    1  UNL1        0.0000
     29 C          -4.8731    0.2016   -0.5992 C.ar    1  UNL1        0.0000
     30 H          -3.7259    1.1893    1.8088 H       1  UNL1        0.0000
     31 H          -3.2293    2.5030   -0.2716 H       1  UNL1        0.0000
     32 H          -6.0927    3.2857    1.0562 H       1  UNL1        0.0000
     33 H          -7.8582    1.8716   -0.2394 H       1  UNL1        0.0000
     34 H          -7.9043   -0.6310   -1.7995 H       1  UNL1        0.0000
     35 H          -3.2082   -3.5172   -1.9613 H       1  UNL1        0.0000
     36 H          -0.5239   -3.5290   -1.6337 H       1  UNL1        0.0000
     37 H           7.7342   -1.9289    0.1237 H       1  UNL1        0.0000
     38 H           8.2714    0.0878    2.0894 H       1  UNL1        0.0000
     39 H           6.7803    1.8435    3.2607 H       1  UNL1        0.0000
     40 H           4.2390    1.5938    2.3148 H       1  UNL1        0.0000
     41 H           1.4787    3.5199    0.1680 H       1  UNL1        0.0000
     42 H          -0.6970    1.9544   -0.4955 H       1  UNL1        0.0000
@<TRIPOS>BOND
     1     1     2    1
     2     2     3    2
     3     3     4    1
     4     4     5   ar
     5     5     6   ar
     6     6     7   ar
     7     7     8    1
     8     8     9   ar
     9     9    10   ar
    10    10    11   ar
    11    11    12   ar
    12    11    13    1
    13    13    14   ar
    14    14    15   ar
    15    15    16    1
    16    16    17   ar
    17    17    18   ar
    18    18    19   ar
    19    19    20   ar
    20    20    21   ar
    21    21    22   ar
    22    22    23   ar
    23    15    24   ar
    24    24    25   ar
    25    25    26   ar
    26    26    27   ar
    27    27    28   ar
    28     7    29   ar
    29    29     1    1
    30    29     4   ar
    31    12     8   ar
    32    28    13   ar
    33    23    16   ar
    34    28    24   ar
    35    23    19   ar
    36     1    30    1
    37     1    31    1
    38     2    32    1
    39     3    33    1
    40     5    34    1
    41     9    35    1
    42    10    36    1
    43    18    37    1
    44    20    38    1
    45    21    39    1
    46    22    40    1
    47    26    41    1
    48    27    42    1
