@<TRIPOS>MOLECULE
*****
 43 49 0 0 0
SMALL
GASTEIGER

@<TRIPOS>ATOM
      1 SI          6.2147   -1.6978   -0.7059 Si      1  UNL1        0.0000
      2 C           8.0204   -1.1203   -0.9556 C.2     1  UNL1        0.0000
      3 C           8.1426    0.2105   -0.7580 C.2     1  UNL1        0.0000
      4 C           6.9268    0.8804   -0.4115 C.ar    1  UNL1        0.0000
      5 C           6.6817    2.2020   -0.1578 C.ar    1  UNL1        0.0000
      6 S           5.0113    2.4520    0.2009 S.2     1  UNL1        0.0000
      7 C           4.6155    0.7743    0.0166 C.ar    1  UNL1        0.0000
      8 C           3.2820    0.2850    0.2173 C.ar    1  UNL1        0.0000
      9 C           2.8744   -0.7793    0.9980 C.ar    1  UNL1        0.0000
     10 N           1.5201   -1.0558    0.9879 N.ar    1  UNL1        0.0000
     11 C           0.8957   -0.1750    0.2336 C.ar    1  UNL1        0.0000
     12 S           1.9110    0.9695   -0.5543 S.2     1  UNL1        0.0000
     13 C          -0.5327   -0.1856   -0.0279 C.ar    1  UNL1        0.0000
     14 C          -1.1771   -1.2701   -0.6703 C.ar    1  UNL1        0.0000
     15 C          -2.5784   -1.3132   -0.9479 C.ar    1  UNL1        0.0000
     16 C          -3.4814   -0.2809   -0.5993 C.ar    1  UNL1        0.0000
     17 C          -4.9046   -0.3459   -0.8586 C.ar    1  UNL1        0.0000
     18 S          -5.5042   -0.4304   -2.4952 S.2     1  UNL1        0.0000
     19 C          -7.1685   -0.4732   -2.0063 C.ar    1  UNL1        0.0000
     20 C          -7.1973   -0.4296   -0.6624 C.ar    1  UNL1        0.0000
     21 O          -8.3062   -0.4478    0.1251 O.2     1  UNL1        0.0000
     22 C          -7.7060   -0.3899    1.3706 C.ar    1  UNL1        0.0000
     23 C          -6.3063   -0.3387    1.3325 C.ar    1  UNL1        0.0000
     24 C          -5.9784   -0.3621   -0.0350 C.ar    1  UNL1        0.0000
     25 C          -2.8525    0.7932    0.0595 C.ar    1  UNL1        0.0000
     26 C          -3.4966    1.9298    0.4935 C.ar    1  UNL1        0.0000
     27 S          -2.4243    3.0117    1.2834 S.2     1  UNL1        0.0000
     28 C          -1.0776    1.9773    1.0304 C.ar    1  UNL1        0.0000
     29 C          -1.4262    0.8388    0.3395 C.ar    1  UNL1        0.0000
     30 C           5.7509    0.0880   -0.3070 C.ar    1  UNL1        0.0000
     31 H           6.0984   -2.6100    0.4592 H       1  UNL1        0.0000
     32 H           5.6374   -2.2038   -1.9752 H       1  UNL1        0.0000
     33 H           8.7950   -1.8210   -1.2228 H       1  UNL1        0.0000
     34 H           9.0838    0.7401   -0.8531 H       1  UNL1        0.0000
     35 H           7.3687    3.0367   -0.1621 H       1  UNL1        0.0000
     36 H           3.5267   -1.3963    1.6046 H       1  UNL1        0.0000
     37 H          -0.5725   -2.1270   -0.9734 H       1  UNL1        0.0000
     38 H          -2.9651   -2.2031   -1.4470 H       1  UNL1        0.0000
     39 H          -7.9962   -0.5279   -2.6980 H       1  UNL1        0.0000
     40 H          -8.4080   -0.3940    2.1944 H       1  UNL1        0.0000
     41 H          -5.6461   -0.2925    2.1869 H       1  UNL1        0.0000
     42 H          -4.5397    2.2004    0.4047 H       1  UNL1        0.0000
     43 H          -0.1113    2.2817    1.4082 H       1  UNL1        0.0000
@<TRIPOS>BOND
     1     1     2    1
     2     2     3    2
     3     3     4    1
     4     4     5   ar
     5     5     6   ar
     6     6     7   ar
     7     7     8    1
     8     8     9   ar
     9     9    10   ar
    10    10    11   ar
    11    11    12   ar
    12    11    13    1
    13    13    14   ar
    14    14    15   ar
    15    15    16   ar
    16    16    17    1
    17    17    18   ar
    18    18    19   ar
    19    19    20   ar
    20    20    21   ar
    21    21    22   ar
    22    22    23   ar
    23    23    24   ar
    24    16    25   ar
    25    25    26   ar
    26    26    27   ar
    27    27    28   ar
    28    28    29   ar
    29     7    30   ar
    30    30     1    1
    31    30     4   ar
    32    12     8   ar
    33    29    13   ar
    34    24    17   ar
    35    29    25   ar
    36    24    20   ar
    37     1    31    1
    38     1    32    1
    39     2    33    1
    40     3    34    1
    41     5    35    1
    42     9    36    1
    43    14    37    1
    44    15    38    1
    45    19    39    1
    46    22    40    1
    47    23    41    1
    48    26    42    1
    49    28    43    1
