@<TRIPOS>MOLECULE
*****
 38 42 0 0 0
SMALL
GASTEIGER

@<TRIPOS>ATOM
      1 SI          5.5657   -0.2923    1.2369 Si      1  UNL1        0.0000
      2 C           7.0570    0.1140    0.1614 C.2     1  UNL1        0.0000
      3 C           6.6886    0.7459   -0.9731 C.2     1  UNL1        0.0000
      4 C           5.2597    0.9900   -1.1172 C.2     1  UNL1        0.0000
      5 C           4.4916    0.5192   -0.1112 C.2     1  UNL1        0.0000
      6 C           3.0792    0.6834    0.0431 C.2     1  UNL1        0.0000
      7 SI          1.8433   -0.6961   -0.4069 Si      1  UNL1        0.0000
      8 C           0.4721    0.5048    0.0746 C.2     1  UNL1        0.0000
      9 C           0.9765    1.6899    0.4789 C.2     1  UNL1        0.0000
     10 C           2.4284    1.7926    0.4504 C.2     1  UNL1        0.0000
     11 C          -0.9007    0.1791    0.0062 C.ar    1  UNL1        0.0000
     12 S          -1.9888    0.5216    1.3416 S.2     1  UNL1        0.0000
     13 C          -3.3818   -0.1377    0.5538 C.ar    1  UNL1        0.0000
     14 C          -4.6959   -0.1890    1.1226 C.ar    1  UNL1        0.0000
     15 C          -5.1290    0.2098    2.3795 C.ar    1  UNL1        0.0000
     16 C          -6.5173   -0.0567    2.4591 C.ar    1  UNL1        0.0000
     17 C          -6.8657   -0.6002    1.2485 C.ar    1  UNL1        0.0000
     18 O          -5.7821   -0.6874    0.4379 O.2     1  UNL1        0.0000
     19 C          -2.9960   -0.5784   -0.6635 C.ar    1  UNL1        0.0000
     20 N          -3.7781   -1.1615   -1.6214 N.ar    1  UNL1        0.0000
     21 C          -2.8508   -1.3890   -2.6341 C.ar    1  UNL1        0.0000
     22 C          -1.5626   -0.9452   -2.2664 C.ar    1  UNL1        0.0000
     23 C          -1.6588   -0.4105   -0.9523 C.ar    1  UNL1        0.0000
     24 H           5.3390   -1.7584    1.3855 H       1  UNL1        0.0000
     25 H           5.5800    0.4901    2.5028 H       1  UNL1        0.0000
     26 H           8.0605   -0.1454    0.4663 H       1  UNL1        0.0000
     27 H           7.3847    1.0787   -1.7353 H       1  UNL1        0.0000
     28 H           4.8760    1.5379   -1.9718 H       1  UNL1        0.0000
     29 H           1.9646   -1.8581    0.5164 H       1  UNL1        0.0000
     30 H           1.8625   -1.0014   -1.8655 H       1  UNL1        0.0000
     31 H           0.3796    2.5371    0.7961 H       1  UNL1        0.0000
     32 H           2.9230    2.7108    0.7541 H       1  UNL1        0.0000
     33 H          -4.5103    0.6419    3.1541 H       1  UNL1        0.0000
     34 H          -7.1781    0.1274    3.2943 H       1  UNL1        0.0000
     35 H          -7.7948   -0.9602    0.8290 H       1  UNL1        0.0000
     36 H          -4.7740   -1.3508   -1.5619 H       1  UNL1        0.0000
     37 H          -3.1843   -1.8499   -3.5550 H       1  UNL1        0.0000
     38 H          -0.6828   -1.0059   -2.8937 H       1  UNL1        0.0000
@<TRIPOS>BOND
     1     1     2    1
     2     2     3    2
     3     3     4    1
     4     4     5    2
     5     5     6    1
     6     6     7    1
     7     7     8    1
     8     8     9    2
     9     9    10    1
    10     8    11    1
    11    11    12   ar
    12    12    13   ar
    13    13    14    1
    14    14    15   ar
    15    15    16   ar
    16    16    17   ar
    17    17    18   ar
    18    13    19   ar
    19    19    20   ar
    20    20    21   ar
    21    21    22   ar
    22    22    23   ar
    23     5     1    1
    24    10     6    2
    25    23    11   ar
    26    18    14   ar
    27    23    19   ar
    28     1    24    1
    29     1    25    1
    30     2    26    1
    31     3    27    1
    32     4    28    1
    33     7    29    1
    34     7    30    1
    35     9    31    1
    36    10    32    1
    37    15    33    1
    38    16    34    1
    39    17    35    1
    40    20    36    1
    41    21    37    1
    42    22    38    1
