@<TRIPOS>MOLECULE
*****
 33 38 0 0 0
SMALL
GASTEIGER

@<TRIPOS>ATOM
      1 SI          1.7479    0.9281   -0.9094 Si      1  UNL1        0.0000
      2 C           2.8347   -0.1142    0.2977 C.2     1  UNL1        0.0000
      3 C           2.0762   -0.8598    1.1353 C.2     1  UNL1        0.0000
      4 C           0.6833   -0.6781    0.8952 C.ar    1  UNL1        0.0000
      5 S          -0.6092   -1.4175    1.7077 S.2     1  UNL1        0.0000
      6 C          -1.8097   -0.5874    0.7310 C.ar    1  UNL1        0.0000
      7 C          -1.1462    0.2264   -0.1828 C.ar    1  UNL1        0.0000
      8 C           0.2362    0.1750   -0.0897 C.ar    1  UNL1        0.0000
      9 C          -1.9175    1.0148   -1.1028 C.ar    1  UNL1        0.0000
     10 N          -1.3588    1.8117   -2.0022 N.ar    1  UNL1        0.0000
     11 S          -2.6840    2.4703   -2.7851 S.2     1  UNL1        0.0000
     12 N          -3.9303    1.7209   -1.9588 N.ar    1  UNL1        0.0000
     13 C          -3.3646    0.9201   -1.0294 C.ar    1  UNL1        0.0000
     14 C          -4.0474    0.0866   -0.0930 C.ar    1  UNL1        0.0000
     15 C          -5.4481   -0.0055   -0.0214 C.ar    1  UNL1        0.0000
     16 C          -5.9949   -0.8484    0.9285 C.ar    1  UNL1        0.0000
     17 N          -5.2628   -1.5876    1.7905 N.ar    1  UNL1        0.0000
     18 C          -3.9130   -1.4858    1.7069 C.ar    1  UNL1        0.0000
     19 C          -3.2396   -0.6697    0.7906 C.ar    1  UNL1        0.0000
     20 C           4.2522   -0.0646    0.2740 C.ar    1  UNL1        0.0000
     21 C           5.1159   -0.0212   -0.8109 C.ar    1  UNL1        0.0000
     22 C           6.4907    0.0363   -0.4382 C.ar    1  UNL1        0.0000
     23 C           6.6516    0.0366    0.9263 C.ar    1  UNL1        0.0000
     24 S           5.1577   -0.0350    1.7465 S.2     1  UNL1        0.0000
     25 H           1.9692    0.4874   -2.3122 H       1  UNL1        0.0000
     26 H           1.9200    2.3818   -0.6542 H       1  UNL1        0.0000
     27 H           2.4561   -1.5283    1.8983 H       1  UNL1        0.0000
     28 H          -6.0888    0.5636   -0.6870 H       1  UNL1        0.0000
     29 H          -7.0718   -0.9566    1.0263 H       1  UNL1        0.0000
     30 H          -3.3818   -2.1037    2.4261 H       1  UNL1        0.0000
     31 H           4.7827   -0.0418   -1.8420 H       1  UNL1        0.0000
     32 H           7.3172    0.0726   -1.1372 H       1  UNL1        0.0000
     33 H           7.5770    0.0731    1.4845 H       1  UNL1        0.0000
@<TRIPOS>BOND
     1     1     2    1
     2     2     3    2
     3     3     4    1
     4     4     5   ar
     5     5     6   ar
     6     6     7   ar
     7     7     8   ar
     8     7     9   ar
     9     9    10   ar
    10    10    11   ar
    11    11    12   ar
    12    12    13   ar
    13    13    14   ar
    14    14    15   ar
    15    15    16   ar
    16    16    17   ar
    17    17    18   ar
    18    18    19   ar
    19     2    20    1
    20    20    21   ar
    21    21    22   ar
    22    22    23   ar
    23    23    24   ar
    24     8     1    1
    25    13     9   ar
    26    19    14   ar
    27    24    20   ar
    28     8     4   ar
    29    19     6   ar
    30     1    25    1
    31     1    26    1
    32     3    27    1
    33    15    28    1
    34    16    29    1
    35    18    30    1
    36    21    31    1
    37    22    32    1
    38    23    33    1
