@<TRIPOS>MOLECULE
*****
 46 51 0 0 0
SMALL
GASTEIGER

@<TRIPOS>ATOM
      1 SI          5.9181    1.6499   -1.0889 Si      1  UNL1        0.0000
      2 C           7.6164    0.8547   -1.2766 C.2     1  UNL1        0.0000
      3 C           7.5448   -0.4848   -1.1697 C.2     1  UNL1        0.0000
      4 C           6.2105   -1.0189   -0.9441 C.2     1  UNL1        0.0000
      5 C           5.2332   -0.0944   -0.8538 C.2     1  UNL1        0.0000
      6 C           3.8199   -0.3490   -0.6740 C.ar    1  UNL1        0.0000
      7 C           2.9669   -0.7695   -1.7204 C.ar    1  UNL1        0.0000
      8 C           1.5690   -1.0209   -1.5551 C.ar    1  UNL1        0.0000
      9 C           0.8839   -0.8796   -0.3268 C.ar    1  UNL1        0.0000
     10 C          -0.5404   -1.1110   -0.1894 C.ar    1  UNL1        0.0000
     11 C          -1.3100   -2.2023   -0.5438 C.ar    1  UNL1        0.0000
     12 C          -2.6572   -1.9060   -0.2240 C.ar    1  UNL1        0.0000
     13 C          -2.7024   -0.6277    0.3009 C.ar    1  UNL1        0.0000
     14 N          -1.4078   -0.1596    0.2986 N.ar    1  UNL1        0.0000
     15 C          -3.8106    0.1674    0.7899 C.ar    1  UNL1        0.0000
     16 C          -3.8006    0.8899    2.0101 C.ar    1  UNL1        0.0000
     17 C          -4.9070    1.6764    2.4917 C.ar    1  UNL1        0.0000
     18 C          -6.1339    1.8278    1.8056 C.ar    1  UNL1        0.0000
     19 C          -6.1177    1.1167    0.6130 C.ar    1  UNL1        0.0000
     20 C          -7.1394    1.0595   -0.2989 C.ar    1  UNL1        0.0000
     21 N          -6.7016    0.2661   -1.3381 N.ar    1  UNL1        0.0000
     22 C          -5.4169   -0.1751   -1.0964 C.ar    1  UNL1        0.0000
     23 C          -5.0304    0.3284    0.1227 C.ar    1  UNL1        0.0000
     24 C           1.7317   -0.4928    0.7282 C.ar    1  UNL1        0.0000
     25 C           1.3398   -0.3577    2.0408 C.ar    1  UNL1        0.0000
     26 S           2.6436    0.1136    3.0535 S.2     1  UNL1        0.0000
     27 C           3.7584    0.0996    1.7482 C.ar    1  UNL1        0.0000
     28 C           3.1514   -0.2367    0.5596 C.ar    1  UNL1        0.0000
     29 H           5.4646    2.2891   -2.3495 H       1  UNL1        0.0000
     30 H           5.8325    2.4733    0.1434 H       1  UNL1        0.0000
     31 H           8.5012    1.4479   -1.4447 H       1  UNL1        0.0000
     32 H           8.4017   -1.1430   -1.2449 H       1  UNL1        0.0000
     33 H           6.0477   -2.0871   -0.8625 H       1  UNL1        0.0000
     34 H           3.3896   -0.9073   -2.7167 H       1  UNL1        0.0000
     35 H           1.0033   -1.3278   -2.4358 H       1  UNL1        0.0000
     36 H          -0.9380   -3.1235   -0.9738 H       1  UNL1        0.0000
     37 H          -3.5092   -2.5603   -0.3571 H       1  UNL1        0.0000
     38 H          -1.1347    0.7682    0.5921 H       1  UNL1        0.0000
     39 H          -2.9143    0.8390    2.6424 H       1  UNL1        0.0000
     40 H          -4.7893    2.1832    3.4502 H       1  UNL1        0.0000
     41 H          -6.9566    2.4219    2.1757 H       1  UNL1        0.0000
     42 H          -8.1250    1.5036   -0.3194 H       1  UNL1        0.0000
     43 H          -7.2402    0.0472   -2.1657 H       1  UNL1        0.0000
     44 H          -4.9083   -0.7978   -1.8192 H       1  UNL1        0.0000
     45 H           0.3661   -0.5202    2.4815 H       1  UNL1        0.0000
     46 H           4.7972    0.3295    1.9411 H       1  UNL1        0.0000
@<TRIPOS>BOND
     1     1     2    1
     2     2     3    2
     3     3     4    1
     4     4     5    2
     5     5     6    1
     6     6     7   ar
     7     7     8   ar
     8     8     9   ar
     9     9    10    1
    10    10    11   ar
    11    11    12   ar
    12    12    13   ar
    13    13    14   ar
    14    13    15    1
    15    15    16   ar
    16    16    17   ar
    17    17    18   ar
    18    18    19   ar
    19    19    20   ar
    20    20    21   ar
    21    21    22   ar
    22    22    23   ar
    23     9    24   ar
    24    24    25   ar
    25    25    26   ar
    26    26    27   ar
    27    27    28   ar
    28     5     1    1
    29    28     6   ar
    30    14    10   ar
    31    23    15   ar
    32    28    24   ar
    33    23    19   ar
    34     1    29    1
    35     1    30    1
    36     2    31    1
    37     3    32    1
    38     4    33    1
    39     7    34    1
    40     8    35    1
    41    11    36    1
    42    12    37    1
    43    14    38    1
    44    16    39    1
    45    17    40    1
    46    18    41    1
    47    20    42    1
    48    21    43    1
    49    22    44    1
    50    25    45    1
    51    27    46    1
