@<TRIPOS>MOLECULE
*****
 41 46 0 0 0
SMALL
GASTEIGER

@<TRIPOS>ATOM
      1 SI          5.7287   -1.6748   -1.6993 Si      1  UNL1        0.0000
      2 C           7.4979   -1.0229   -1.6007 C.2     1  UNL1        0.0000
      3 C           7.5475    0.1413   -0.9307 C.2     1  UNL1        0.0000
      4 C           6.2680    0.6293   -0.4387 C.2     1  UNL1        0.0000
      5 C           5.1951   -0.1487   -0.7097 C.2     1  UNL1        0.0000
      6 C           3.7932    0.0658   -0.3534 C.ar    1  UNL1        0.0000
      7 C           3.4258    0.8906    0.7057 C.ar    1  UNL1        0.0000
      8 C           2.0712    1.0619    1.0055 C.ar    1  UNL1        0.0000
      9 C           1.0931    0.4121    0.2507 C.ar    1  UNL1        0.0000
     10 C           1.5590   -0.3932   -0.7848 C.ar    1  UNL1        0.0000
     11 N           2.8682   -0.5813   -1.0963 N.ar    1  UNL1        0.0000
     12 C          -0.3275    0.5673    0.5346 C.ar    1  UNL1        0.0000
     13 S          -1.4928   -0.7029    0.3568 S.2     1  UNL1        0.0000
     14 C          -2.8349    0.2812    0.8769 C.ar    1  UNL1        0.0000
     15 C          -4.1761   -0.2298    0.9623 C.ar    1  UNL1        0.0000
     16 S          -5.1494    0.0915    2.3539 S.2     1  UNL1        0.0000
     17 C          -6.4784   -0.8045    1.7488 C.ar    1  UNL1        0.0000
     18 C          -6.2018   -1.3310    0.5147 C.ar    1  UNL1        0.0000
     19 N          -7.1006   -2.0770   -0.1853 N.ar    1  UNL1        0.0000
     20 C          -6.5758   -2.4659   -1.3795 C.ar    1  UNL1        0.0000
     21 C          -5.2925   -2.1464   -1.8379 C.ar    1  UNL1        0.0000
     22 N          -4.3795   -1.4016   -1.1574 N.ar    1  UNL1        0.0000
     23 C          -4.8728   -1.0011    0.0524 C.ar    1  UNL1        0.0000
     24 C          -2.3387    1.5073    1.1695 C.ar    1  UNL1        0.0000
     25 C          -2.7599    2.7750    1.6141 C.ar    1  UNL1        0.0000
     26 C          -1.5984    3.5548    1.6485 C.ar    1  UNL1        0.0000
     27 O          -0.4555    2.8854    1.2563 O.2     1  UNL1        0.0000
     28 C          -0.9841    1.6583    0.9825 C.ar    1  UNL1        0.0000
     29 H           5.2783   -1.6946   -3.1151 H       1  UNL1        0.0000
     30 H           5.6128   -2.9506   -0.9456 H       1  UNL1        0.0000
     31 H           8.3203   -1.5578   -2.0478 H       1  UNL1        0.0000
     32 H           8.4604    0.6977   -0.7568 H       1  UNL1        0.0000
     33 H           6.2278    1.5689    0.0983 H       1  UNL1        0.0000
     34 H           4.1698    1.3968    1.3111 H       1  UNL1        0.0000
     35 H           1.7975    1.7036    1.8397 H       1  UNL1        0.0000
     36 H           0.8752   -0.9321   -1.4362 H       1  UNL1        0.0000
     37 H          -7.3915   -0.8988    2.3185 H       1  UNL1        0.0000
     38 H          -7.2389   -3.0689   -1.9939 H       1  UNL1        0.0000
     39 H          -4.9574   -2.5005   -2.8091 H       1  UNL1        0.0000
     40 H          -3.7547    3.1076    1.8737 H       1  UNL1        0.0000
     41 H          -1.4284    4.5882    1.9219 H       1  UNL1        0.0000
@<TRIPOS>BOND
     1     1     2    1
     2     2     3    2
     3     3     4    1
     4     4     5    2
     5     5     6    1
     6     6     7   ar
     7     7     8   ar
     8     8     9   ar
     9     9    10   ar
    10    10    11   ar
    11     9    12    1
    12    12    13   ar
    13    13    14   ar
    14    14    15    1
    15    15    16   ar
    16    16    17   ar
    17    17    18   ar
    18    18    19   ar
    19    19    20   ar
    20    20    21   ar
    21    21    22   ar
    22    22    23   ar
    23    14    24   ar
    24    24    25   ar
    25    25    26   ar
    26    26    27   ar
    27    27    28   ar
    28     5     1    1
    29    11     6   ar
    30    28    12   ar
    31    23    15   ar
    32    28    24   ar
    33    23    18   ar
    34     1    29    1
    35     1    30    1
    36     2    31    1
    37     3    32    1
    38     4    33    1
    39     7    34    1
    40     8    35    1
    41    10    36    1
    42    17    37    1
    43    20    38    1
    44    21    39    1
    45    25    40    1
    46    26    41    1
