@<TRIPOS>MOLECULE
*****
 43 48 0 0 0
SMALL
GASTEIGER

@<TRIPOS>ATOM
      1 SI         -6.4178   -1.5953   -0.2940 Si      1  UNL1        0.0000
      2 C          -7.9646   -0.5710   -0.6073 C.2     1  UNL1        0.0000
      3 C          -7.6681    0.7334   -0.7519 C.2     1  UNL1        0.0000
      4 C          -6.2561    1.0659   -0.6391 C.2     1  UNL1        0.0000
      5 C          -5.4378    0.0206   -0.3974 C.2     1  UNL1        0.0000
      6 C          -3.9903    0.0617   -0.2549 C.ar    1  UNL1        0.0000
      7 C          -3.3602   -0.2542    0.9474 C.ar    1  UNL1        0.0000
      8 C          -1.9682   -0.1953    1.0382 C.ar    1  UNL1        0.0000
      9 C          -1.2239    0.1750   -0.0806 C.ar    1  UNL1        0.0000
     10 N          -1.8200    0.5134   -1.2503 N.ar    1  UNL1        0.0000
     11 C          -3.1725    0.4465   -1.3118 C.ar    1  UNL1        0.0000
     12 C           0.2301    0.2793   -0.0718 C.ar    1  UNL1        0.0000
     13 C           0.9504    1.3732   -0.6288 C.ar    1  UNL1        0.0000
     14 C           2.3842    1.5104   -0.6179 C.ar    1  UNL1        0.0000
     15 C           3.2785    0.5568   -0.0646 C.ar    1  UNL1        0.0000
     16 C           4.7178    0.7066   -0.0393 C.ar    1  UNL1        0.0000
     17 C           5.3804    1.7730    0.5862 C.ar    1  UNL1        0.0000
     18 N           6.7322    2.0115    0.6534 N.ar    1  UNL1        0.0000
     19 C           7.6176    1.1596    0.0611 C.ar    1  UNL1        0.0000
     20 C           7.1044    0.0391   -0.6200 C.ar    1  UNL1        0.0000
     21 N           7.8173   -0.8998   -1.2632 N.ar    1  UNL1        0.0000
     22 S           6.7179   -1.9706   -1.8947 S.2     1  UNL1        0.0000
     23 N           5.2965   -1.2971   -1.3729 N.ar    1  UNL1        0.0000
     24 C           5.6146   -0.1921   -0.6737 C.ar    1  UNL1        0.0000
     25 C           2.5592   -0.5219    0.4630 C.ar    1  UNL1        0.0000
     26 C           3.0491   -1.6421    1.0862 C.ar    1  UNL1        0.0000
     27 O           2.0187   -2.4667    1.4378 O.2     1  UNL1        0.0000
     28 C           0.8579   -1.8689    1.0369 C.ar    1  UNL1        0.0000
     29 C           1.1299   -0.6532    0.4602 C.ar    1  UNL1        0.0000
     30 H          -6.1227   -2.5191   -1.4166 H       1  UNL1        0.0000
     31 H          -6.3981   -2.1805    1.0703 H       1  UNL1        0.0000
     32 H          -8.9421   -1.0243   -0.6555 H       1  UNL1        0.0000
     33 H          -8.4074    1.5027   -0.9398 H       1  UNL1        0.0000
     34 H          -5.9233    2.0920   -0.7434 H       1  UNL1        0.0000
     35 H          -3.9391   -0.5295    1.8256 H       1  UNL1        0.0000
     36 H          -1.4843   -0.4149    1.9845 H       1  UNL1        0.0000
     37 H          -3.5924    0.7193   -2.2769 H       1  UNL1        0.0000
     38 H           0.3746    2.1730   -1.1015 H       1  UNL1        0.0000
     39 H           2.7955    2.4072   -1.0857 H       1  UNL1        0.0000
     40 H           4.7935    2.5333    1.1049 H       1  UNL1        0.0000
     41 H           8.6720    1.3880    0.1404 H       1  UNL1        0.0000
     42 H           4.0354   -2.0075    1.3354 H       1  UNL1        0.0000
     43 H          -0.0391   -2.4377    1.2363 H       1  UNL1        0.0000
@<TRIPOS>BOND
     1     1     2    1
     2     2     3    2
     3     3     4    1
     4     4     5    2
     5     5     6    1
     6     6     7   ar
     7     7     8   ar
     8     8     9   ar
     9     9    10   ar
    10    10    11   ar
    11     9    12    1
    12    12    13   ar
    13    13    14   ar
    14    14    15   ar
    15    15    16    1
    16    16    17   ar
    17    17    18   ar
    18    18    19   ar
    19    19    20   ar
    20    20    21   ar
    21    21    22   ar
    22    22    23   ar
    23    23    24   ar
    24    15    25   ar
    25    25    26   ar
    26    26    27   ar
    27    27    28   ar
    28    28    29   ar
    29     5     1    1
    30    11     6   ar
    31    29    12   ar
    32    24    16   ar
    33    29    25   ar
    34    24    20   ar
    35     1    30    1
    36     1    31    1
    37     2    32    1
    38     3    33    1
    39     4    34    1
    40     7    35    1
    41     8    36    1
    42    11    37    1
    43    13    38    1
    44    14    39    1
    45    17    40    1
    46    19    41    1
    47    26    42    1
    48    28    43    1
