@<TRIPOS>MOLECULE
*****
 42 47 0 0 0
SMALL
GASTEIGER

@<TRIPOS>ATOM
      1 SI          6.7866    0.1720   -0.5809 Si      1  UNL1        0.0000
      2 C           7.2333    1.9573   -0.1979 C.2     1  UNL1        0.0000
      3 C           6.1349    2.6704    0.1108 C.2     1  UNL1        0.0000
      4 C           4.8851    1.9234    0.0807 C.2     1  UNL1        0.0000
      5 C           4.9976    0.6202   -0.2518 C.2     1  UNL1        0.0000
      6 C           3.8987   -0.2684   -0.3350 C.ar    1  UNL1        0.0000
      7 C           3.8348   -1.6175   -0.6629 C.ar    1  UNL1        0.0000
      8 C           2.4791   -2.0229   -0.5982 C.ar    1  UNL1        0.0000
      9 C           1.7429   -0.9167   -0.2238 C.ar    1  UNL1        0.0000
     10 O           2.6048    0.1348   -0.0782 O.2     1  UNL1        0.0000
     11 C           0.3332   -0.7843   -0.0235 C.ar    1  UNL1        0.0000
     12 S          -0.5315    0.6766   -0.3834 S.2     1  UNL1        0.0000
     13 C          -2.0794    0.0166    0.0613 C.ar    1  UNL1        0.0000
     14 C          -3.2815    0.8127   -0.0518 C.ar    1  UNL1        0.0000
     15 C          -3.4598    2.1103    0.4940 C.ar    1  UNL1        0.0000
     16 C          -4.6757    2.8774    0.3800 C.ar    1  UNL1        0.0000
     17 C          -5.8390    2.4335   -0.2911 C.ar    1  UNL1        0.0000
     18 C          -5.6354    1.1663   -0.8197 C.ar    1  UNL1        0.0000
     19 C          -6.5289    0.4247   -1.5442 C.ar    1  UNL1        0.0000
     20 O          -5.9493   -0.7616   -1.9037 O.2     1  UNL1        0.0000
     21 C          -4.6753   -0.7685   -1.4015 C.ar    1  UNL1        0.0000
     22 C          -4.4392    0.3943   -0.7128 C.ar    1  UNL1        0.0000
     23 C          -1.8609   -1.2481    0.4878 C.ar    1  UNL1        0.0000
     24 C          -2.5518   -2.3648    1.0255 C.ar    1  UNL1        0.0000
     25 C          -1.5933   -3.3701    1.2662 C.ar    1  UNL1        0.0000
     26 N          -0.3118   -2.9515    0.9160 N.ar    1  UNL1        0.0000
     27 C          -0.5538   -1.6873    0.4530 C.ar    1  UNL1        0.0000
     28 H           7.3473   -0.7725    0.4186 H       1  UNL1        0.0000
     29 H           7.0535   -0.1812   -1.9982 H       1  UNL1        0.0000
     30 H           8.2510    2.3119   -0.2360 H       1  UNL1        0.0000
     31 H           6.1472    3.7230    0.3664 H       1  UNL1        0.0000
     32 H           3.9466    2.4137    0.3144 H       1  UNL1        0.0000
     33 H           4.6707   -2.2477   -0.9331 H       1  UNL1        0.0000
     34 H           2.0898   -3.0048   -0.8251 H       1  UNL1        0.0000
     35 H          -2.6343    2.5634    1.0455 H       1  UNL1        0.0000
     36 H          -4.6946    3.8646    0.8443 H       1  UNL1        0.0000
     37 H          -6.7433    3.0191   -0.3722 H       1  UNL1        0.0000
     38 H          -7.5444    0.5686   -1.8843 H       1  UNL1        0.0000
     39 H          -4.0958   -1.6524   -1.6277 H       1  UNL1        0.0000
     40 H          -3.6107   -2.4469    1.2343 H       1  UNL1        0.0000
     41 H          -1.7257   -4.3618    1.6799 H       1  UNL1        0.0000
     42 H           0.5781   -3.4260    1.0003 H       1  UNL1        0.0000
@<TRIPOS>BOND
     1     1     2    1
     2     2     3    2
     3     3     4    1
     4     4     5    2
     5     5     6    1
     6     6     7   ar
     7     7     8   ar
     8     8     9   ar
     9     9    10   ar
    10     9    11    1
    11    11    12   ar
    12    12    13   ar
    13    13    14    1
    14    14    15   ar
    15    15    16   ar
    16    16    17   ar
    17    17    18   ar
    18    18    19   ar
    19    19    20   ar
    20    20    21   ar
    21    21    22   ar
    22    13    23   ar
    23    23    24   ar
    24    24    25   ar
    25    25    26   ar
    26    26    27   ar
    27     5     1    1
    28    10     6   ar
    29    27    11   ar
    30    22    14   ar
    31    27    23   ar
    32    22    18   ar
    33     1    28    1
    34     1    29    1
    35     2    30    1
    36     3    31    1
    37     4    32    1
    38     7    33    1
    39     8    34    1
    40    15    35    1
    41    16    36    1
    42    17    37    1
    43    19    38    1
    44    21    39    1
    45    24    40    1
    46    25    41    1
    47    26    42    1
