@<TRIPOS>MOLECULE
*****
 45 51 0 0 0
SMALL
GASTEIGER

@<TRIPOS>ATOM
      1 SI          6.8639   -0.9493   -0.7900 Si      1  UNL1        0.0000
      2 C           8.2119    0.3573   -0.8710 C.2     1  UNL1        0.0000
      3 C           7.6944    1.5865   -0.7067 C.2     1  UNL1        0.0000
      4 C           6.2536    1.6264   -0.5110 C.2     1  UNL1        0.0000
      5 C           5.6132    0.4330   -0.5177 C.2     1  UNL1        0.0000
      6 C           4.1734    0.2627   -0.3392 C.ar    1  UNL1        0.0000
      7 N           3.4209    1.4068   -0.1793 N.ar    1  UNL1        0.0000
      8 C           2.0641    1.3663    0.0034 C.ar    1  UNL1        0.0000
      9 C           1.2599    0.2329    0.0431 C.ar    1  UNL1        0.0000
     10 C          -0.1713    0.2499    0.2575 C.ar    1  UNL1        0.0000
     11 S          -1.2246    0.4751   -1.0771 S.2     1  UNL1        0.0000
     12 C          -2.6440    0.3482   -0.1049 C.ar    1  UNL1        0.0000
     13 C          -3.9448    0.4487   -0.7420 C.ar    1  UNL1        0.0000
     14 C          -4.3821    1.5354   -1.5446 C.ar    1  UNL1        0.0000
     15 C          -5.6787    1.6093   -2.1715 C.ar    1  UNL1        0.0000
     16 C          -6.6730    0.6088   -2.0679 C.ar    1  UNL1        0.0000
     17 C          -6.2189   -0.4416   -1.2821 C.ar    1  UNL1        0.0000
     18 C          -6.8983   -1.5884   -0.9709 C.ar    1  UNL1        0.0000
     19 O          -6.1096   -2.3860   -0.1873 O.2     1  UNL1        0.0000
     20 C          -4.9202   -1.7338    0.0012 C.ar    1  UNL1        0.0000
     21 C          -4.9407   -0.5275   -0.6520 C.ar    1  UNL1        0.0000
     22 C          -2.3072    0.1575    1.2191 C.ar    1  UNL1        0.0000
     23 N          -3.2207    0.0421    2.2271 N.ar    1  UNL1        0.0000
     24 C          -2.6064   -0.1302    3.4285 C.ar    1  UNL1        0.0000
     25 C          -1.2218   -0.1775    3.6263 C.ar    1  UNL1        0.0000
     26 N          -0.2860   -0.0574    2.6458 N.ar    1  UNL1        0.0000
     27 C          -0.8783    0.1067    1.4271 C.ar    1  UNL1        0.0000
     28 C           1.9660   -0.9811   -0.1128 C.ar    1  UNL1        0.0000
     29 N           1.4382   -2.2196   -0.1140 N.ar    1  UNL1        0.0000
     30 S           2.6903   -3.2782   -0.3236 S.2     1  UNL1        0.0000
     31 N           3.9628   -2.2275   -0.4412 N.ar    1  UNL1        0.0000
     32 C           3.4711   -0.9803   -0.3110 C.ar    1  UNL1        0.0000
     33 H           7.0538   -1.8221    0.3962 H       1  UNL1        0.0000
     34 H           6.7162   -1.6339   -2.0997 H       1  UNL1        0.0000
     35 H           9.2470    0.0997   -1.0292 H       1  UNL1        0.0000
     36 H           8.2807    2.4970   -0.7147 H       1  UNL1        0.0000
     37 H           5.7538    2.5791   -0.3712 H       1  UNL1        0.0000
     38 H           1.6174    2.3528    0.1281 H       1  UNL1        0.0000
     39 H          -3.7072    2.3785   -1.6987 H       1  UNL1        0.0000
     40 H          -5.9039    2.4977   -2.7638 H       1  UNL1        0.0000
     41 H          -7.6404    0.6742   -2.5446 H       1  UNL1        0.0000
     42 H          -7.8761   -1.9853   -1.2028 H       1  UNL1        0.0000
     43 H          -4.1981   -2.2586    0.6105 H       1  UNL1        0.0000
     44 H          -3.2814   -0.2346    4.2736 H       1  UNL1        0.0000
     45 H          -0.8191   -0.3196    4.6256 H       1  UNL1        0.0000
@<TRIPOS>BOND
     1     1     2    1
     2     2     3    2
     3     3     4    1
     4     4     5    2
     5     5     6    1
     6     6     7   ar
     7     7     8   ar
     8     8     9   ar
     9     9    10    1
    10    10    11   ar
    11    11    12   ar
    12    12    13    1
    13    13    14   ar
    14    14    15   ar
    15    15    16   ar
    16    16    17   ar
    17    17    18   ar
    18    18    19   ar
    19    19    20   ar
    20    20    21   ar
    21    12    22   ar
    22    22    23   ar
    23    23    24   ar
    24    24    25   ar
    25    25    26   ar
    26    26    27   ar
    27     9    28   ar
    28    28    29   ar
    29    29    30   ar
    30    30    31   ar
    31    31    32   ar
    32     5     1    1
    33    32     6   ar
    34    27    10   ar
    35    32    28   ar
    36    21    13   ar
    37    27    22   ar
    38    21    17   ar
    39     1    33    1
    40     1    34    1
    41     2    35    1
    42     3    36    1
    43     4    37    1
    44     8    38    1
    45    14    39    1
    46    15    40    1
    47    16    41    1
    48    18    42    1
    49    20    43    1
    50    24    44    1
    51    25    45    1
