@<TRIPOS>MOLECULE
*****
 42 48 0 0 0
SMALL
GASTEIGER

@<TRIPOS>ATOM
      1 SI          6.3666    0.2049   -1.1371 Si      1  UNL1        0.0000
      2 C           7.8309   -0.5513   -0.2302 C.2     1  UNL1        0.0000
      3 C           7.4315   -1.1869    0.8844 C.2     1  UNL1        0.0000
      4 C           5.9993   -1.1519    1.1419 C.2     1  UNL1        0.0000
      5 C           5.2473   -0.4864    0.2357 C.2     1  UNL1        0.0000
      6 C           3.8075   -0.2560    0.1900 C.ar    1  UNL1        0.0000
      7 N           3.2451    0.1925   -0.9793 N.ar    1  UNL1        0.0000
      8 C           1.8982    0.4216   -1.0927 C.ar    1  UNL1        0.0000
      9 C           0.9272    0.2505   -0.1084 C.ar    1  UNL1        0.0000
     10 C          -0.4790    0.5175   -0.2992 C.ar    1  UNL1        0.0000
     11 S          -1.6711   -0.7167   -0.2438 S.2     1  UNL1        0.0000
     12 C          -2.9735    0.3783   -0.5458 C.ar    1  UNL1        0.0000
     13 C          -4.3332   -0.0601   -0.6210 C.ar    1  UNL1        0.0000
     14 S          -5.4126    0.3666   -1.9151 S.2     1  UNL1        0.0000
     15 C          -6.7433   -0.5379   -1.2573 C.ar    1  UNL1        0.0000
     16 C          -6.3196   -1.1055   -0.1107 C.ar    1  UNL1        0.0000
     17 C          -6.7779   -1.9311    0.9440 C.ar    1  UNL1        0.0000
     18 C          -5.6985   -2.0952    1.8382 C.ar    1  UNL1        0.0000
     19 N          -4.5638   -1.4114    1.4063 N.ar    1  UNL1        0.0000
     20 C          -5.0119   -0.8525    0.2414 C.ar    1  UNL1        0.0000
     21 C          -2.4373    1.6168   -0.6970 C.ar    1  UNL1        0.0000
     22 C          -2.9777    2.9090   -0.9438 C.ar    1  UNL1        0.0000
     23 C          -1.9974    3.9056   -0.9994 C.ar    1  UNL1        0.0000
     24 S          -0.3404    3.3825   -0.7491 S.2     1  UNL1        0.0000
     25 C          -1.0508    1.7306   -0.5647 C.ar    1  UNL1        0.0000
     26 C           1.4453   -0.1994    1.1297 C.ar    1  UNL1        0.0000
     27 N           0.7453   -0.4288    2.2570 N.ar    1  UNL1        0.0000
     28 S           1.8266   -0.9264    3.4054 S.2     1  UNL1        0.0000
     29 N           3.2350   -0.8784    2.5415 N.ar    1  UNL1        0.0000
     30 C           2.9305   -0.4651    1.2962 C.ar    1  UNL1        0.0000
     31 H           6.1786   -0.4487   -2.4577 H       1  UNL1        0.0000
     32 H           6.4544    1.6879   -1.1357 H       1  UNL1        0.0000
     33 H           8.8384   -0.4572   -0.6027 H       1  UNL1        0.0000
     34 H           8.1051   -1.6969    1.5625 H       1  UNL1        0.0000
     35 H           5.6128   -1.6511    2.0223 H       1  UNL1        0.0000
     36 H           1.6069    0.7703   -2.0843 H       1  UNL1        0.0000
     37 H          -7.7034   -0.5764   -1.7509 H       1  UNL1        0.0000
     38 H          -7.7617   -2.3646    1.0662 H       1  UNL1        0.0000
     39 H          -5.6499   -2.6552    2.7635 H       1  UNL1        0.0000
     40 H          -3.6394   -1.3332    1.8150 H       1  UNL1        0.0000
     41 H          -4.0305    3.1291   -1.0749 H       1  UNL1        0.0000
     42 H          -2.1596    4.9607   -1.1754 H       1  UNL1        0.0000
@<TRIPOS>BOND
     1     1     2    1
     2     2     3    2
     3     3     4    1
     4     4     5    2
     5     5     6    1
     6     6     7   ar
     7     7     8   ar
     8     8     9   ar
     9     9    10    1
    10    10    11   ar
    11    11    12   ar
    12    12    13    1
    13    13    14   ar
    14    14    15   ar
    15    15    16   ar
    16    16    17   ar
    17    17    18   ar
    18    18    19   ar
    19    19    20   ar
    20    12    21   ar
    21    21    22   ar
    22    22    23   ar
    23    23    24   ar
    24    24    25   ar
    25     9    26   ar
    26    26    27   ar
    27    27    28   ar
    28    28    29   ar
    29    29    30   ar
    30     5     1    1
    31    30     6   ar
    32    25    10   ar
    33    30    26   ar
    34    20    13   ar
    35    25    21   ar
    36    20    16   ar
    37     1    31    1
    38     1    32    1
    39     2    33    1
    40     3    34    1
    41     4    35    1
    42     8    36    1
    43    15    37    1
    44    17    38    1
    45    18    39    1
    46    19    40    1
    47    22    41    1
    48    23    42    1
