@<TRIPOS>MOLECULE
*****
 42 47 0 0 0
SMALL
GASTEIGER

@<TRIPOS>ATOM
      1 SI         -4.7122    2.5275    0.2295 Si      1  UNL1        0.0000
      2 C          -6.3295    2.5648   -0.7434 C.2     1  UNL1        0.0000
      3 C          -6.4600    1.4662   -1.5097 C.2     1  UNL1        0.0000
      4 C          -5.3614    0.5151   -1.4202 C.2     1  UNL1        0.0000
      5 C          -4.3607    0.8744   -0.5909 C.2     1  UNL1        0.0000
      6 C          -3.2165    0.0855   -0.3292 C.ar    1  UNL1        0.0000
      7 S          -1.6250    0.7075   -0.6485 S.2     1  UNL1        0.0000
      8 C          -0.8155   -0.7399   -0.1508 C.ar    1  UNL1        0.0000
      9 C           0.6162   -0.8433   -0.1987 C.ar    1  UNL1        0.0000
     10 C           1.4438   -1.9435   -0.3085 C.ar    1  UNL1        0.0000
     11 C           2.7863   -1.4829   -0.3022 C.ar    1  UNL1        0.0000
     12 C           2.7638   -0.1064   -0.1961 C.ar    1  UNL1        0.0000
     13 N           1.4389    0.2591   -0.1445 N.ar    1  UNL1        0.0000
     14 C           3.8380    0.8424   -0.1482 C.ar    1  UNL1        0.0000
     15 S           3.5623    2.5643   -0.0189 S.2     1  UNL1        0.0000
     16 C           5.2504    2.9599   -0.0229 C.ar    1  UNL1        0.0000
     17 C           5.9422    1.8080   -0.1186 C.ar    1  UNL1        0.0000
     18 N           7.2996    1.6749   -0.1540 N.ar    1  UNL1        0.0000
     19 C           7.4332    0.2926   -0.2554 C.ar    1  UNL1        0.0000
     20 C           6.1763   -0.3493   -0.2776 C.ar    1  UNL1        0.0000
     21 C           5.1798    0.6619   -0.1864 C.ar    1  UNL1        0.0000
     22 C          -1.7541   -1.6440    0.2510 C.ar    1  UNL1        0.0000
     23 SI         -1.7655   -3.3905    0.9619 Si      1  UNL1        0.0000
     24 C          -3.6675   -3.3098    1.0319 C.2     1  UNL1        0.0000
     25 C          -4.1222   -2.1212    0.5812 C.2     1  UNL1        0.0000
     26 C          -3.1059   -1.1999    0.1546 C.ar    1  UNL1        0.0000
     27 H          -3.8022    3.6210   -0.1970 H       1  UNL1        0.0000
     28 H          -4.9659    2.4261    1.6893 H       1  UNL1        0.0000
     29 H          -7.0197    3.3889   -0.6592 H       1  UNL1        0.0000
     30 H          -7.3090    1.2768   -2.1551 H       1  UNL1        0.0000
     31 H          -5.3799   -0.4037   -1.9943 H       1  UNL1        0.0000
     32 H           1.1338   -2.9750   -0.4016 H       1  UNL1        0.0000
     33 H           3.6701   -2.1017   -0.3755 H       1  UNL1        0.0000
     34 H           1.1110    1.2124   -0.0730 H       1  UNL1        0.0000
     35 H           5.6102    3.9768    0.0429 H       1  UNL1        0.0000
     36 H           8.0000    2.4051   -0.1154 H       1  UNL1        0.0000
     37 H           8.4259   -0.1363   -0.3051 H       1  UNL1        0.0000
     38 H           6.0275   -1.4178   -0.3515 H       1  UNL1        0.0000
     39 H          -1.3141   -4.4373    0.0103 H       1  UNL1        0.0000
     40 H          -1.1982   -3.5001    2.3291 H       1  UNL1        0.0000
     41 H          -4.2484   -4.1397    1.4002 H       1  UNL1        0.0000
     42 H          -5.1760   -1.8690    0.5454 H       1  UNL1        0.0000
@<TRIPOS>BOND
     1     1     2    1
     2     2     3    2
     3     3     4    1
     4     4     5    2
     5     5     6    1
     6     6     7   ar
     7     7     8   ar
     8     8     9    1
     9     9    10   ar
    10    10    11   ar
    11    11    12   ar
    12    12    13   ar
    13    12    14    1
    14    14    15   ar
    15    15    16   ar
    16    16    17   ar
    17    17    18   ar
    18    18    19   ar
    19    19    20   ar
    20    20    21   ar
    21     8    22   ar
    22    22    23    1
    23    23    24    1
    24    24    25    2
    25    25    26    1
    26     5     1    1
    27    26     6   ar
    28    13     9   ar
    29    21    14   ar
    30    26    22   ar
    31    21    17   ar
    32     1    27    1
    33     1    28    1
    34     2    29    1
    35     3    30    1
    36     4    31    1
    37    10    32    1
    38    11    33    1
    39    13    34    1
    40    16    35    1
    41    18    36    1
    42    19    37    1
    43    20    38    1
    44    23    39    1
    45    23    40    1
    46    24    41    1
    47    25    42    1
