@<TRIPOS>MOLECULE
*****
 47 53 0 0 0
SMALL
GASTEIGER

@<TRIPOS>ATOM
      1 SI          6.5220   -1.1721    1.2151 Si      1  UNL1        0.0000
      2 C           7.4665   -2.5578    0.3564 C.2     1  UNL1        0.0000
      3 C           6.8099   -2.9885   -0.7365 C.2     1  UNL1        0.0000
      4 C           5.5502   -2.3113   -1.0102 C.2     1  UNL1        0.0000
      5 C           5.2210   -1.3412   -0.1332 C.2     1  UNL1        0.0000
      6 C           4.0463   -0.5595   -0.1825 C.ar    1  UNL1        0.0000
      7 S           2.4769   -1.3090   -0.2139 S.2     1  UNL1        0.0000
      8 C           1.6392    0.1861   -0.2265 C.ar    1  UNL1        0.0000
      9 C           0.1987    0.2611   -0.2481 C.ar    1  UNL1        0.0000
     10 C          -0.5775    0.0066   -1.4014 C.ar    1  UNL1        0.0000
     11 C          -2.0054    0.0875   -1.4295 C.ar    1  UNL1        0.0000
     12 C          -2.8080    0.4240   -0.3097 C.ar    1  UNL1        0.0000
     13 C          -4.2519    0.5007   -0.3610 C.ar    1  UNL1        0.0000
     14 C          -4.9617    1.5990   -0.9116 C.ar    1  UNL1        0.0000
     15 C          -6.3907    1.6884   -0.9706 C.ar    1  UNL1        0.0000
     16 C          -7.2628    0.6888   -0.4903 C.ar    1  UNL1        0.0000
     17 C          -6.5653   -0.3940    0.0444 C.ar    1  UNL1        0.0000
     18 C          -7.2014   -1.4915    0.5695 C.ar    1  UNL1        0.0000
     19 S          -6.0701   -2.6527    1.1405 S.2     1  UNL1        0.0000
     20 C          -4.7267   -1.6820    0.6808 C.ar    1  UNL1        0.0000
     21 C          -5.1269   -0.4951    0.1103 C.ar    1  UNL1        0.0000
     22 C          -2.0319    0.6782    0.8379 C.ar    1  UNL1        0.0000
     23 C          -2.5554    1.0376    2.0592 C.ar    1  UNL1        0.0000
     24 S          -1.3283    1.2580    3.2392 S.2     1  UNL1        0.0000
     25 C          -0.0818    0.8805    2.1203 C.ar    1  UNL1        0.0000
     26 C          -0.5843    0.5989    0.8702 C.ar    1  UNL1        0.0000
     27 C           2.5140    1.2345   -0.2333 C.ar    1  UNL1        0.0000
     28 S           2.2526    3.0220   -0.2741 S.2     1  UNL1        0.0000
     29 C           4.0050    3.1283   -0.2642 C.ar    1  UNL1        0.0000
     30 C           4.7001    1.9143   -0.2328 C.ar    1  UNL1        0.0000
     31 C           3.8361    0.7851   -0.2053 C.ar    1  UNL1        0.0000
     32 H           7.2603    0.1157    1.1503 H       1  UNL1        0.0000
     33 H           6.0416   -1.5806    2.5587 H       1  UNL1        0.0000
     34 H           8.4076   -2.9218    0.7370 H       1  UNL1        0.0000
     35 H           7.1671   -3.7811   -1.3828 H       1  UNL1        0.0000
     36 H           4.9512   -2.5949   -1.8676 H       1  UNL1        0.0000
     37 H          -0.0680   -0.2634   -2.3274 H       1  UNL1        0.0000
     38 H          -2.5028   -0.1304   -2.3766 H       1  UNL1        0.0000
     39 H          -4.3888    2.4371   -1.3129 H       1  UNL1        0.0000
     40 H          -6.8269    2.5846   -1.4137 H       1  UNL1        0.0000
     41 H          -8.3398    0.7750   -0.5445 H       1  UNL1        0.0000
     42 H          -8.2615   -1.6869    0.6531 H       1  UNL1        0.0000
     43 H          -3.7243   -2.0457    0.8616 H       1  UNL1        0.0000
     44 H          -3.5902    1.1824    2.3389 H       1  UNL1        0.0000
     45 H           0.9465    0.8928    2.4546 H       1  UNL1        0.0000
     46 H           4.4372    4.1196   -0.2893 H       1  UNL1        0.0000
     47 H           5.7824    1.8726   -0.2394 H       1  UNL1        0.0000
@<TRIPOS>BOND
     1     1     2    1
     2     2     3    2
     3     3     4    1
     4     4     5    2
     5     5     6    1
     6     6     7   ar
     7     7     8   ar
     8     8     9    1
     9     9    10   ar
    10    10    11   ar
    11    11    12   ar
    12    12    13    1
    13    13    14   ar
    14    14    15   ar
    15    15    16   ar
    16    16    17   ar
    17    17    18   ar
    18    18    19   ar
    19    19    20   ar
    20    20    21   ar
    21    12    22   ar
    22    22    23   ar
    23    23    24   ar
    24    24    25   ar
    25    25    26   ar
    26     8    27   ar
    27    27    28   ar
    28    28    29   ar
    29    29    30   ar
    30    30    31   ar
    31     5     1    1
    32    31     6   ar
    33    26     9   ar
    34    31    27   ar
    35    21    13   ar
    36    26    22   ar
    37    21    17   ar
    38     1    32    1
    39     1    33    1
    40     2    34    1
    41     3    35    1
    42     4    36    1
    43    10    37    1
    44    11    38    1
    45    14    39    1
    46    15    40    1
    47    16    41    1
    48    18    42    1
    49    20    43    1
    50    23    44    1
    51    25    45    1
    52    29    46    1
    53    30    47    1
