@<TRIPOS>MOLECULE
*****
 40 45 0 0 0
SMALL
GASTEIGER

@<TRIPOS>ATOM
      1 SI         -5.6243    2.1073    0.0126 Si      1  UNL1        0.0000
      2 C          -7.2987    1.4120    0.5184 C.2     1  UNL1        0.0000
      3 C          -7.2075    0.1061    0.8273 C.2     1  UNL1        0.0000
      4 C          -5.8759   -0.4694    0.7022 C.2     1  UNL1        0.0000
      5 C          -4.9092    0.3845    0.3036 C.2     1  UNL1        0.0000
      6 C          -3.5584    0.0189    0.0917 C.ar    1  UNL1        0.0000
      7 S          -2.2203    1.0789    0.5072 S.2     1  UNL1        0.0000
      8 C          -0.9955   -0.0342   -0.0003 C.ar    1  UNL1        0.0000
      9 C           0.4358    0.2299    0.0876 C.ar    1  UNL1        0.0000
     10 C           0.9666    1.5130   -0.0801 C.ar    1  UNL1        0.0000
     11 C           2.3442    1.7262    0.0170 C.ar    1  UNL1        0.0000
     12 C           3.1769    0.6447    0.2813 C.ar    1  UNL1        0.0000
     13 N           2.6983   -0.6069    0.4539 N.ar    1  UNL1        0.0000
     14 C           1.3564   -0.7839    0.3482 C.ar    1  UNL1        0.0000
     15 C           4.6149    0.7833    0.4108 C.ar    1  UNL1        0.0000
     16 S           5.3870    2.0596    1.3005 S.2     1  UNL1        0.0000
     17 C           6.9915    1.4669    0.9759 C.ar    1  UNL1        0.0000
     18 C           6.8698    0.3583    0.2162 C.ar    1  UNL1        0.0000
     19 C           7.6686   -0.6082   -0.4134 C.ar    1  UNL1        0.0000
     20 C           6.7611   -1.4664   -1.0470 C.ar    1  UNL1        0.0000
     21 O           5.4344   -1.1196   -0.8728 O.2     1  UNL1        0.0000
     22 C           5.5817   -0.0136   -0.0898 C.ar    1  UNL1        0.0000
     23 C          -1.6203   -1.1411   -0.4497 C.ar    1  UNL1        0.0000
     24 O          -1.0408   -2.2681   -0.9525 O.2     1  UNL1        0.0000
     25 C          -2.1709   -3.0073   -1.2430 C.ar    1  UNL1        0.0000
     26 C          -3.3727   -2.3612   -0.9328 C.ar    1  UNL1        0.0000
     27 C          -2.9935   -1.1144   -0.4002 C.ar    1  UNL1        0.0000
     28 H          -5.1421    3.1231    0.9821 H       1  UNL1        0.0000
     29 H          -5.6088    2.5120   -1.4159 H       1  UNL1        0.0000
     30 H          -8.1837    2.0278    0.5436 H       1  UNL1        0.0000
     31 H          -8.0473   -0.4981    1.1486 H       1  UNL1        0.0000
     32 H          -5.7174   -1.5162    0.9320 H       1  UNL1        0.0000
     33 H           0.3238    2.3617   -0.2995 H       1  UNL1        0.0000
     34 H           2.7464    2.7239   -0.1246 H       1  UNL1        0.0000
     35 H           1.0400   -1.8133    0.4989 H       1  UNL1        0.0000
     36 H           7.8683    1.9709    1.3565 H       1  UNL1        0.0000
     37 H           8.7449   -0.6983   -0.4279 H       1  UNL1        0.0000
     38 H           6.9028   -2.3530   -1.6511 H       1  UNL1        0.0000
     39 H          -1.9604   -3.9783   -1.6726 H       1  UNL1        0.0000
     40 H          -4.3656   -2.7574   -1.0886 H       1  UNL1        0.0000
@<TRIPOS>BOND
     1     1     2    1
     2     2     3    2
     3     3     4    1
     4     4     5    2
     5     5     6    1
     6     6     7   ar
     7     7     8   ar
     8     8     9    1
     9     9    10   ar
    10    10    11   ar
    11    11    12   ar
    12    12    13   ar
    13    13    14   ar
    14    12    15    1
    15    15    16   ar
    16    16    17   ar
    17    17    18   ar
    18    18    19   ar
    19    19    20   ar
    20    20    21   ar
    21    21    22   ar
    22     8    23   ar
    23    23    24   ar
    24    24    25   ar
    25    25    26   ar
    26    26    27   ar
    27     5     1    1
    28    27     6   ar
    29    14     9   ar
    30    22    15   ar
    31    27    23   ar
    32    22    18   ar
    33     1    28    1
    34     1    29    1
    35     2    30    1
    36     3    31    1
    37     4    32    1
    38    10    33    1
    39    11    34    1
    40    14    35    1
    41    17    36    1
    42    19    37    1
    43    20    38    1
    44    25    39    1
    45    26    40    1
