@<TRIPOS>MOLECULE
*****
 35 39 0 0 0
SMALL
GASTEIGER

@<TRIPOS>ATOM
      1 SI          4.7108    1.5399    0.8495 Si      1  UNL1        0.0000
      2 C           6.2594    1.2122   -0.1783 C.2     1  UNL1        0.0000
      3 C           5.9905    0.4080   -1.2229 C.2     1  UNL1        0.0000
      4 C           4.6047   -0.0238   -1.3315 C.2     1  UNL1        0.0000
      5 C           3.7835    0.4408   -0.3677 C.2     1  UNL1        0.0000
      6 C           2.4111    0.1508   -0.2670 C.ar    1  UNL1        0.0000
      7 S           1.1540    1.3418   -0.2386 S.2     1  UNL1        0.0000
      8 C          -0.1396    0.1707   -0.1332 C.ar    1  UNL1        0.0000
      9 C          -1.5250    0.5681   -0.0680 C.ar    1  UNL1        0.0000
     10 C          -2.0788    1.7707   -0.4647 C.ar    1  UNL1        0.0000
     11 C          -3.4887    1.8306   -0.2505 C.ar    1  UNL1        0.0000
     12 C          -3.9962    0.6745    0.3122 C.ar    1  UNL1        0.0000
     13 S          -2.7368   -0.4640    0.5661 S.2     1  UNL1        0.0000
     14 C          -5.3666    0.3804    0.6674 C.ar    1  UNL1        0.0000
     15 C          -5.8870   -0.7454    1.2884 C.ar    1  UNL1        0.0000
     16 N          -7.2536   -0.7554    1.5074 N.ar    1  UNL1        0.0000
     17 C          -7.7663    0.3635    1.0510 C.ar    1  UNL1        0.0000
     18 S          -6.6658    1.4696    0.3492 S.2     1  UNL1        0.0000
     19 C           0.4464   -1.0519   -0.1234 C.ar    1  UNL1        0.0000
     20 C           0.1375   -2.4405   -0.0693 C.ar    1  UNL1        0.0000
     21 C           1.3569   -3.1479   -0.1002 C.ar    1  UNL1        0.0000
     22 N           2.4447   -2.2850   -0.1762 N.ar    1  UNL1        0.0000
     23 C           1.8248   -1.0659   -0.1950 C.ar    1  UNL1        0.0000
     24 H           4.8299    0.9413    2.2029 H       1  UNL1        0.0000
     25 H           4.3161    2.9699    0.7932 H       1  UNL1        0.0000
     26 H           7.2117    1.6456    0.0836 H       1  UNL1        0.0000
     27 H           6.7309    0.0941   -1.9488 H       1  UNL1        0.0000
     28 H           4.2919   -0.6601   -2.1513 H       1  UNL1        0.0000
     29 H          -1.5080    2.5825   -0.8997 H       1  UNL1        0.0000
     30 H          -4.0890    2.6962   -0.5032 H       1  UNL1        0.0000
     31 H          -5.3117   -1.6049    1.6127 H       1  UNL1        0.0000
     32 H          -8.8250    0.5796    1.1120 H       1  UNL1        0.0000
     33 H          -0.8409   -2.8987   -0.0135 H       1  UNL1        0.0000
     34 H           1.5341   -4.2154   -0.0735 H       1  UNL1        0.0000
     35 H           3.4399   -2.4721   -0.2076 H       1  UNL1        0.0000
@<TRIPOS>BOND
     1     1     2    1
     2     2     3    2
     3     3     4    1
     4     4     5    2
     5     5     6    1
     6     6     7   ar
     7     7     8   ar
     8     8     9    1
     9     9    10   ar
    10    10    11   ar
    11    11    12   ar
    12    12    13   ar
    13    12    14    1
    14    14    15   ar
    15    15    16   ar
    16    16    17   ar
    17    17    18   ar
    18     8    19   ar
    19    19    20   ar
    20    20    21   ar
    21    21    22   ar
    22    22    23   ar
    23     5     1    1
    24    23     6   ar
    25    13     9   ar
    26    18    14   ar
    27    23    19   ar
    28     1    24    1
    29     1    25    1
    30     2    26    1
    31     3    27    1
    32     4    28    1
    33    10    29    1
    34    11    30    1
    35    15    31    1
    36    17    32    1
    37    20    33    1
    38    21    34    1
    39    22    35    1
