@<TRIPOS>MOLECULE
*****
 35 38 0 0 0
SMALL
GASTEIGER

@<TRIPOS>ATOM
      1 SI         -2.2858   -0.0076    0.8453 Si      1  UNL1        0.0000
      2 C          -3.6029    0.1343   -0.4757 C.2     1  UNL1        0.0000
      3 C          -3.0464    0.1970   -1.7008 C.2     1  UNL1        0.0000
      4 C          -1.5899    0.1423   -1.7213 C.2     1  UNL1        0.0000
      5 C          -0.9765    0.0334   -0.5190 C.2     1  UNL1        0.0000
      6 C           0.4707   -0.0332   -0.2950 C.ar    1  UNL1        0.0000
      7 C           1.0683   -0.1999    0.9525 C.ar    1  UNL1        0.0000
      8 C           2.4637   -0.2493    1.0517 C.ar    1  UNL1        0.0000
      9 C           3.2527   -0.1328   -0.0909 C.ar    1  UNL1        0.0000
     10 C           2.5744    0.0237   -1.2931 C.ar    1  UNL1        0.0000
     11 N           1.2241    0.0774   -1.4166 N.ar    1  UNL1        0.0000
     12 C           4.7133   -0.1805   -0.0370 C.ar    1  UNL1        0.0000
     13 C           5.6333   -0.6570   -0.9584 C.ar    1  UNL1        0.0000
     14 C           6.9329   -0.4611   -0.4325 C.ar    1  UNL1        0.0000
     15 C           6.7868    0.1402    0.7944 C.ar    1  UNL1        0.0000
     16 N           5.4470    0.3091    1.0240 N.ar    1  UNL1        0.0000
     17 C          -4.9859    0.1678   -0.1833 C.ar    1  UNL1        0.0000
     18 C          -6.0821    0.2685   -1.0378 C.ar    1  UNL1        0.0000
     19 C          -7.2602    0.2603   -0.2541 C.ar    1  UNL1        0.0000
     20 C          -6.8406    0.1554    1.0452 C.ar    1  UNL1        0.0000
     21 O          -5.4894    0.0995    1.1015 O.2     1  UNL1        0.0000
     22 H          -2.2694   -1.3117    1.5602 H       1  UNL1        0.0000
     23 H          -2.1719    1.1824    1.7301 H       1  UNL1        0.0000
     24 H          -3.5933    0.2824   -2.6312 H       1  UNL1        0.0000
     25 H          -1.0563    0.1893   -2.6648 H       1  UNL1        0.0000
     26 H           0.4876   -0.3037    1.8616 H       1  UNL1        0.0000
     27 H           2.9124   -0.4028    2.0290 H       1  UNL1        0.0000
     28 H           3.1099    0.1260   -2.2332 H       1  UNL1        0.0000
     29 H           5.3956   -1.1123   -1.9117 H       1  UNL1        0.0000
     30 H           7.8713   -0.7279   -0.9013 H       1  UNL1        0.0000
     31 H           7.5187    0.4660    1.5214 H       1  UNL1        0.0000
     32 H           5.0538    0.7515    1.8436 H       1  UNL1        0.0000
     33 H          -6.0315    0.3401   -2.1155 H       1  UNL1        0.0000
     34 H          -8.2832    0.3231   -0.5961 H       1  UNL1        0.0000
     35 H          -7.3510    0.1100    1.9970 H       1  UNL1        0.0000
@<TRIPOS>BOND
     1     1     2    1
     2     2     3    2
     3     3     4    1
     4     4     5    2
     5     5     6    1
     6     6     7   ar
     7     7     8   ar
     8     8     9   ar
     9     9    10   ar
    10    10    11   ar
    11     9    12    1
    12    12    13   ar
    13    13    14   ar
    14    14    15   ar
    15    15    16   ar
    16     2    17    1
    17    17    18   ar
    18    18    19   ar
    19    19    20   ar
    20    20    21   ar
    21     5     1    1
    22    11     6   ar
    23    16    12   ar
    24    21    17   ar
    25     1    22    1
    26     1    23    1
    27     3    24    1
    28     4    25    1
    29     7    26    1
    30     8    27    1
    31    10    28    1
    32    13    29    1
    33    14    30    1
    34    15    31    1
    35    16    32    1
    36    18    33    1
    37    19    34    1
    38    20    35    1
