@<TRIPOS>MOLECULE
*****
 38 43 0 0 0
SMALL
GASTEIGER

@<TRIPOS>ATOM
      1 SI         -4.8129    2.3821    0.0389 Si      1  UNL1        0.0000
      2 C          -6.6316    1.9376   -0.0512 C.2     1  UNL1        0.0000
      3 C          -6.7970    0.6084   -0.1589 C.2     1  UNL1        0.0000
      4 C          -5.5684   -0.1743   -0.1818 C.2     1  UNL1        0.0000
      5 C          -4.4138    0.5228   -0.0926 C.2     1  UNL1        0.0000
      6 C          -3.1068   -0.0443   -0.0963 C.ar    1  UNL1        0.0000
      7 S          -1.6598    0.9372    0.0232 S.2     1  UNL1        0.0000
      8 C          -0.5327   -0.3895   -0.0444 C.ar    1  UNL1        0.0000
      9 C           0.9188   -0.1688    0.0168 C.ar    1  UNL1        0.0000
     10 C           1.4979    1.1090    0.1328 C.ar    1  UNL1        0.0000
     11 N           2.8220    1.4633    0.2004 N.ar    1  UNL1        0.0000
     12 C           3.8131    0.5250    0.1585 C.ar    1  UNL1        0.0000
     13 C           5.2077    0.9762    0.2357 C.ar    1  UNL1        0.0000
     14 C           6.3946    0.2584    0.2167 C.ar    1  UNL1        0.0000
     15 C           7.5574    1.0792    0.3153 C.ar    1  UNL1        0.0000
     16 C           7.2370    2.4115    0.4080 C.ar    1  UNL1        0.0000
     17 S           5.5511    2.6650    0.3760 S.2     1  UNL1        0.0000
     18 C           3.4133   -0.8320    0.0419 C.ar    1  UNL1        0.0000
     19 N           4.2035   -1.9213   -0.0178 N.ar    1  UNL1        0.0000
     20 S           3.2191   -3.2373   -0.1490 S.2     1  UNL1        0.0000
     21 N           1.7465   -2.5068   -0.1377 N.ar    1  UNL1        0.0000
     22 C           1.9217   -1.1800   -0.0303 C.ar    1  UNL1        0.0000
     23 C          -1.2841   -1.5086   -0.1534 C.ar    1  UNL1        0.0000
     24 O          -0.8511   -2.7968   -0.2392 O.2     1  UNL1        0.0000
     25 C          -2.0493   -3.4657   -0.3272 C.ar    1  UNL1        0.0000
     26 C          -3.1669   -2.6315   -0.2971 C.ar    1  UNL1        0.0000
     27 C          -2.6525   -1.3238   -0.1809 C.ar    1  UNL1        0.0000
     28 H          -4.4494    2.9577    1.3583 H       1  UNL1        0.0000
     29 H          -4.3726    3.1516   -1.1520 H       1  UNL1        0.0000
     30 H          -7.4046    2.6888   -0.0168 H       1  UNL1        0.0000
     31 H          -7.7647    0.1256   -0.2259 H       1  UNL1        0.0000
     32 H          -5.6461   -1.2487   -0.2672 H       1  UNL1        0.0000
     33 H           0.8644    1.9954    0.1816 H       1  UNL1        0.0000
     34 H           6.4482   -0.8201    0.1354 H       1  UNL1        0.0000
     35 H           8.5743    0.7065    0.3176 H       1  UNL1        0.0000
     36 H           7.9120    3.2519    0.4932 H       1  UNL1        0.0000
     37 H          -1.9468   -4.5400   -0.4067 H       1  UNL1        0.0000
     38 H          -4.1917   -2.9642   -0.3539 H       1  UNL1        0.0000
@<TRIPOS>BOND
     1     1     2    1
     2     2     3    2
     3     3     4    1
     4     4     5    2
     5     5     6    1
     6     6     7   ar
     7     7     8   ar
     8     8     9    1
     9     9    10   ar
    10    10    11   ar
    11    11    12   ar
    12    12    13    1
    13    13    14   ar
    14    14    15   ar
    15    15    16   ar
    16    16    17   ar
    17    12    18   ar
    18    18    19   ar
    19    19    20   ar
    20    20    21   ar
    21    21    22   ar
    22     8    23   ar
    23    23    24   ar
    24    24    25   ar
    25    25    26   ar
    26    26    27   ar
    27     5     1    1
    28    27     6   ar
    29    22     9   ar
    30    27    23   ar
    31    17    13   ar
    32    22    18   ar
    33     1    28    1
    34     1    29    1
    35     2    30    1
    36     3    31    1
    37     4    32    1
    38    10    33    1
    39    14    34    1
    40    15    35    1
    41    16    36    1
    42    25    37    1
    43    26    38    1
