@<TRIPOS>MOLECULE
*****
 46 52 0 0 0
SMALL
GASTEIGER

@<TRIPOS>ATOM
      1 SI          6.3053    0.8417   -1.8449 Si      1  UNL1        0.0000
      2 C           7.7338   -0.1700   -1.1552 C.2     1  UNL1        0.0000
      3 C           7.3404   -0.9090   -0.1020 C.2     1  UNL1        0.0000
      4 C           5.9381   -0.7691    0.2657 C.2     1  UNL1        0.0000
      5 C           5.2249    0.0856   -0.4970 C.2     1  UNL1        0.0000
      6 C           3.8514    0.3829   -0.3411 C.ar    1  UNL1        0.0000
      7 S           2.6761   -0.8838   -0.0119 S.2     1  UNL1        0.0000
      8 C           1.3228    0.1913    0.0132 C.ar    1  UNL1        0.0000
      9 C          -0.0299   -0.2187    0.2300 C.ar    1  UNL1        0.0000
     10 S          -1.3008    0.2695   -0.8397 S.2     1  UNL1        0.0000
     11 C          -2.5233   -0.5708    0.0460 C.ar    1  UNL1        0.0000
     12 C          -3.8948   -0.5294   -0.4130 C.ar    1  UNL1        0.0000
     13 C          -4.5920   -1.6311   -0.9675 C.ar    1  UNL1        0.0000
     14 C          -5.9658   -1.5777   -1.4015 C.ar    1  UNL1        0.0000
     15 C          -6.7853   -0.4260   -1.3198 C.ar    1  UNL1        0.0000
     16 C          -6.0780    0.6318   -0.7636 C.ar    1  UNL1        0.0000
     17 C          -6.5410    1.8957   -0.5159 C.ar    1  UNL1        0.0000
     18 O          -5.5441    2.6428    0.0520 O.2     1  UNL1        0.0000
     19 C          -4.4379    1.8423    0.1619 C.ar    1  UNL1        0.0000
     20 C          -4.7184    0.5946   -0.3335 C.ar    1  UNL1        0.0000
     21 C          -1.9661   -1.2239    1.1172 C.ar    1  UNL1        0.0000
     22 C          -2.5671   -2.0375    2.1340 C.2     1  UNL1        0.0000
     23 C          -1.7118   -2.5119    3.0652 C.2     1  UNL1        0.0000
     24 SI          0.0768   -1.9326    2.7238 Si      1  UNL1        0.0000
     25 C          -0.5598   -1.0170    1.2030 C.ar    1  UNL1        0.0000
     26 C           1.7871    1.4364   -0.2128 C.ar    1  UNL1        0.0000
     27 O           1.0636    2.5919   -0.2543 O.2     1  UNL1        0.0000
     28 C           2.0764    3.4981   -0.4954 C.ar    1  UNL1        0.0000
     29 C           3.3489    2.9234   -0.5903 C.ar    1  UNL1        0.0000
     30 C           3.1454    1.5420   -0.4032 C.ar    1  UNL1        0.0000
     31 H           6.5209    2.3005   -1.6629 H       1  UNL1        0.0000
     32 H           5.9300    0.4076   -3.2137 H       1  UNL1        0.0000
     33 H           8.7205   -0.1270   -1.5885 H       1  UNL1        0.0000
     34 H           7.9970   -1.5695    0.4513 H       1  UNL1        0.0000
     35 H           5.5411   -1.3273    1.1053 H       1  UNL1        0.0000
     36 H          -4.0620   -2.5778   -1.0817 H       1  UNL1        0.0000
     37 H          -6.3988   -2.4876   -1.8200 H       1  UNL1        0.0000
     38 H          -7.8147   -0.3997   -1.6469 H       1  UNL1        0.0000
     39 H          -7.4812    2.4083   -0.6606 H       1  UNL1        0.0000
     40 H          -3.5681    2.3104    0.6013 H       1  UNL1        0.0000
     41 H          -3.6316   -2.2436    2.1493 H       1  UNL1        0.0000
     42 H          -1.9415   -3.1339    3.9152 H       1  UNL1        0.0000
     43 H           0.9481   -3.0950    2.4196 H       1  UNL1        0.0000
     44 H           0.5580   -1.0466    3.8128 H       1  UNL1        0.0000
     45 H           1.7369    4.5232   -0.5701 H       1  UNL1        0.0000
     46 H           4.2708    3.4605   -0.7599 H       1  UNL1        0.0000
@<TRIPOS>BOND
     1     1     2    1
     2     2     3    2
     3     3     4    1
     4     4     5    2
     5     5     6    1
     6     6     7   ar
     7     7     8   ar
     8     8     9    1
     9     9    10   ar
    10    10    11   ar
    11    11    12    1
    12    12    13   ar
    13    13    14   ar
    14    14    15   ar
    15    15    16   ar
    16    16    17   ar
    17    17    18   ar
    18    18    19   ar
    19    19    20   ar
    20    11    21   ar
    21    21    22    1
    22    22    23    2
    23    23    24    1
    24    24    25    1
    25     8    26   ar
    26    26    27   ar
    27    27    28   ar
    28    28    29   ar
    29    29    30   ar
    30     5     1    1
    31    30     6   ar
    32    25     9   ar
    33    30    26   ar
    34    20    12   ar
    35    25    21   ar
    36    20    16   ar
    37     1    31    1
    38     1    32    1
    39     2    33    1
    40     3    34    1
    41     4    35    1
    42    13    36    1
    43    14    37    1
    44    15    38    1
    45    17    39    1
    46    19    40    1
    47    22    41    1
    48    23    42    1
    49    24    43    1
    50    24    44    1
    51    28    45    1
    52    29    46    1
