@<TRIPOS>MOLECULE
*****
 40 45 0 0 0
SMALL
GASTEIGER

@<TRIPOS>ATOM
      1 SI         -5.6408   -0.7639    1.1530 Si      1  UNL1        0.0000
      2 C          -6.6206    0.6640    1.9002 C.2     1  UNL1        0.0000
      3 C          -5.8804    1.7853    1.9470 C.2     1  UNL1        0.0000
      4 C          -4.5220    1.6557    1.4390 C.2     1  UNL1        0.0000
      5 C          -4.1787    0.4296    0.9856 C.2     1  UNL1        0.0000
      6 C          -2.9030    0.0486    0.4736 C.ar    1  UNL1        0.0000
      7 S          -1.4623    0.8480    1.0361 S.2     1  UNL1        0.0000
      8 C          -0.4110   -0.0848    0.0587 C.ar    1  UNL1        0.0000
      9 C           1.0097    0.1303    0.0922 C.ar    1  UNL1        0.0000
     10 S           2.0681   -1.0864    0.6814 S.2     1  UNL1        0.0000
     11 C           3.4797   -0.1329    0.4127 C.ar    1  UNL1        0.0000
     12 C           4.7894   -0.6864    0.7242 C.ar    1  UNL1        0.0000
     13 N           5.7487   -0.5238   -0.1881 N.ar    1  UNL1        0.0000
     14 C           6.9173   -1.0541    0.1548 C.ar    1  UNL1        0.0000
     15 N           7.1786   -1.7149    1.2808 N.ar    1  UNL1        0.0000
     16 C           6.1359   -1.8191    2.1019 C.ar    1  UNL1        0.0000
     17 N           4.9178   -1.3328    1.8868 N.ar    1  UNL1        0.0000
     18 C           3.1410    1.0967   -0.1077 C.ar    1  UNL1        0.0000
     19 N           4.0463    2.0772   -0.4014 N.ar    1  UNL1        0.0000
     20 C           3.4342    3.1825   -0.9017 C.ar    1  UNL1        0.0000
     21 C           2.0565    3.3227   -1.0910 C.ar    1  UNL1        0.0000
     22 N           1.1276    2.3748   -0.7998 N.ar    1  UNL1        0.0000
     23 C           1.7135    1.2481   -0.2950 C.ar    1  UNL1        0.0000
     24 C          -1.1154   -0.9978   -0.6877 C.ar    1  UNL1        0.0000
     25 N          -0.5312   -1.8712   -1.5618 N.ar    1  UNL1        0.0000
     26 C          -1.4600   -2.6528   -2.1699 C.ar    1  UNL1        0.0000
     27 C          -2.8366   -2.5875   -1.9411 C.ar    1  UNL1        0.0000
     28 N          -3.4470   -1.7336   -1.0775 N.ar    1  UNL1        0.0000
     29 C          -2.5413   -0.9249   -0.4477 C.ar    1  UNL1        0.0000
     30 H          -6.2685   -1.1804   -0.1271 H       1  UNL1        0.0000
     31 H          -5.4166   -1.8346    2.1588 H       1  UNL1        0.0000
     32 H          -7.6416    0.5398    2.2237 H       1  UNL1        0.0000
     33 H          -6.2407    2.7305    2.3343 H       1  UNL1        0.0000
     34 H          -3.8678    2.5195    1.4500 H       1  UNL1        0.0000
     35 H           7.7342   -0.9395   -0.5496 H       1  UNL1        0.0000
     36 H           6.2954   -2.3510    3.0338 H       1  UNL1        0.0000
     37 H           4.1056    3.9962   -1.1616 H       1  UNL1        0.0000
     38 H           1.6535    4.2454   -1.4991 H       1  UNL1        0.0000
     39 H          -1.0583   -3.3692   -2.8810 H       1  UNL1        0.0000
     40 H          -3.5090   -3.2534   -2.4751 H       1  UNL1        0.0000
@<TRIPOS>BOND
     1     1     2    1
     2     2     3    2
     3     3     4    1
     4     4     5    2
     5     5     6    1
     6     6     7   ar
     7     7     8   ar
     8     8     9    1
     9     9    10   ar
    10    10    11   ar
    11    11    12    1
    12    12    13   ar
    13    13    14   ar
    14    14    15   ar
    15    15    16   ar
    16    16    17   ar
    17    11    18   ar
    18    18    19   ar
    19    19    20   ar
    20    20    21   ar
    21    21    22   ar
    22    22    23   ar
    23     8    24   ar
    24    24    25   ar
    25    25    26   ar
    26    26    27   ar
    27    27    28   ar
    28    28    29   ar
    29     5     1    1
    30    29     6   ar
    31    23     9   ar
    32    29    24   ar
    33    17    12   ar
    34    23    18   ar
    35     1    30    1
    36     1    31    1
    37     2    32    1
    38     3    33    1
    39     4    34    1
    40    14    35    1
    41    16    36    1
    42    20    37    1
    43    21    38    1
    44    26    39    1
    45    27    40    1
