@<TRIPOS>MOLECULE
*****
 30 33 0 0 0
SMALL
GASTEIGER

@<TRIPOS>ATOM
      1 BR          4.6932   -2.5748    1.1750 Br      1  UNL1        0.0000
      2 C           3.9095   -1.0542    0.3519 C.ar    1  UNL1        0.0000
      3 B           2.3676   -0.9024    0.3649 B       1  UNL1        0.0000
      4 C           1.4058   -1.9199    1.0122 C.ar    1  UNL1        0.0000
      5 C           0.0899   -1.6644    0.9509 C.ar    1  UNL1        0.0000
      6 C           4.6092   -0.1005   -0.2418 C.ar    1  UNL1        0.0000
      7 C           4.0042    1.0653   -0.8726 C.ar    1  UNL1        0.0000
      8 C           2.6865    1.2423   -0.8887 C.ar    1  UNL1        0.0000
      9 N           1.7721    0.3277   -0.3035 N.ar    1  UNL1        0.0000
     10 C           0.3818    0.4797   -0.3005 C.ar    1  UNL1        0.0000
     11 C          -0.4392   -0.4716    0.2996 C.ar    1  UNL1        0.0000
     12 C          -1.8155   -0.2571    0.2657 C.ar    1  UNL1        0.0000
     13 C          -2.7040   -1.1323    0.8266 C.ar    1  UNL1        0.0000
     14 C          -4.0866   -0.9145    0.7912 C.ar    1  UNL1        0.0000
     15 C          -4.5925    0.2064    0.1798 C.ar    1  UNL1        0.0000
     16 C          -3.7189    1.1022   -0.3919 C.ar    1  UNL1        0.0000
     17 C          -2.3594    0.8696   -0.3466 C.ar    1  UNL1        0.0000
     18 C          -1.5478    1.8096   -0.9396 C.ar    1  UNL1        0.0000
     19 C          -0.1599    1.6126   -0.9165 C.ar    1  UNL1        0.0000
     20 H           1.8165   -2.7854    1.4830 H       1  UNL1        0.0000
     21 H          -0.5284   -2.4161    1.4232 H       1  UNL1        0.0000
     22 H           5.6901   -0.1941   -0.2582 H       1  UNL1        0.0000
     23 H           4.6705    1.7941   -1.3348 H       1  UNL1        0.0000
     24 H           2.3339    2.1320   -1.3771 H       1  UNL1        0.0000
     25 H          -2.3963   -2.0285    1.3217 H       1  UNL1        0.0000
     26 H          -4.7643   -1.6231    1.2425 H       1  UNL1        0.0000
     27 H          -5.6618    0.3422    0.1712 H       1  UNL1        0.0000
     28 H          -4.1131    1.9971   -0.8806 H       1  UNL1        0.0000
     29 H          -1.9607    2.6928   -1.4205 H       1  UNL1        0.0000
     30 H           0.4175    2.3655   -1.3868 H       1  UNL1        0.0000
@<TRIPOS>BOND
     1     1     2    1
     2     2     3   ar
     3     3     4   ar
     4     4     5   ar
     5     2     6   ar
     6     6     7   ar
     7     7     8   ar
     8     8     9   ar
     9     9    10   ar
    10    10    11   ar
    11    11    12   ar
    12    12    13   ar
    13    13    14   ar
    14    14    15   ar
    15    15    16   ar
    16    16    17   ar
    17    17    18   ar
    18    18    19   ar
    19     9     3   ar
    20    11     5   ar
    21    19    10   ar
    22    17    12   ar
    23     4    20    1
    24     5    21    1
    25     6    22    1
    26     7    23    1
    27     8    24    1
    28    13    25    1
    29    14    26    1
    30    15    27    1
    31    16    28    1
    32    18    29    1
    33    19    30    1
