@<TRIPOS>MOLECULE
*****
 38 40 0 0 0
SMALL
GASTEIGER

@<TRIPOS>ATOM
      1 BR          7.5349    0.0387   -0.2179 Br      1  UNL1       -0.0503
      2 C           5.6561    0.2331   -0.1517 C.ar    1  UNL1        0.0179
      3 C           5.0885    1.1923    0.6833 C.ar    1  UNL1       -0.0472
      4 C           3.6987    1.3352    0.7299 C.ar    1  UNL1       -0.0535
      5 C           2.8693    0.5145   -0.0466 C.ar    1  UNL1       -0.0238
      6 C           1.4161    0.7183    0.0112 C.2     1  UNL1       -0.0402
      7 C           0.5132   -0.2760   -0.0309 C.2     1  UNL1        0.0025
      8 N          -0.8866   -0.2255    0.0228 N.pl3   1  UNL1       -0.2759
      9 C          -1.6106   -1.4037    0.4323 C.ar    1  UNL1        0.0382
     10 C          -1.1129   -2.2605    1.4316 C.ar    1  UNL1       -0.0400
     11 C          -1.8200   -3.4010    1.8243 C.ar    1  UNL1       -0.0600
     12 C          -3.0385   -3.7077    1.2248 C.ar    1  UNL1       -0.0616
     13 C          -3.5519   -2.8745    0.2348 C.ar    1  UNL1       -0.0600
     14 C          -2.8452   -1.7335   -0.1564 C.ar    1  UNL1       -0.0400
     15 C          -1.5816    0.9758   -0.3554 C.ar    1  UNL1        0.0382
     16 C          -2.6293    1.4741    0.4389 C.ar    1  UNL1       -0.0400
     17 C          -3.3156    2.6363    0.0778 C.ar    1  UNL1       -0.0600
     18 C          -2.9682    3.3176   -1.0863 C.ar    1  UNL1       -0.0616
     19 C          -1.9368    2.8378   -1.8903 C.ar    1  UNL1       -0.0600
     20 C          -1.2500    1.6758   -1.5283 C.ar    1  UNL1       -0.0400
     21 C           3.4581   -0.4348   -0.8937 C.ar    1  UNL1       -0.0535
     22 C           4.8479   -0.5797   -0.9429 C.ar    1  UNL1       -0.0472
     23 H           5.7138    1.8330    1.2992 H       1  UNL1        0.0629
     24 H           3.2682    2.0890    1.3861 H       1  UNL1        0.0624
     25 H           1.0878    1.7472    0.1329 H       1  UNL1        0.0636
     26 H           0.8688   -1.3029   -0.0931 H       1  UNL1        0.0787
     27 H          -0.1774   -2.0316    1.9361 H       1  UNL1        0.0636
     28 H          -1.4193   -4.0448    2.6030 H       1  UNL1        0.0618
     29 H          -3.5882   -4.5942    1.5298 H       1  UNL1        0.0618
     30 H          -4.5013   -3.1110   -0.2384 H       1  UNL1        0.0618
     31 H          -3.2601   -1.1092   -0.9443 H       1  UNL1        0.0636
     32 H          -2.9051    0.9612    1.3574 H       1  UNL1        0.0636
     33 H          -4.1190    3.0081    0.7082 H       1  UNL1        0.0618
     34 H          -3.5024    4.2213   -1.3679 H       1  UNL1        0.0618
     35 H          -1.6679    3.3634   -2.8028 H       1  UNL1        0.0618
     36 H          -0.4627    1.3053   -2.1801 H       1  UNL1        0.0636
     37 H           2.8438   -1.0645   -1.5334 H       1  UNL1        0.0624
     38 H           5.2855   -1.3231   -1.6038 H       1  UNL1        0.0629
@<TRIPOS>BOND
     1     1     2    1
     2     2     3   ar
     3     3     4   ar
     4     4     5   ar
     5     5     6    1
     6     6     7    2
     7     7     8    1
     8     8     9    1
     9     9    10   ar
    10    10    11   ar
    11    11    12   ar
    12    12    13   ar
    13    13    14   ar
    14     8    15    1
    15    15    16   ar
    16    16    17   ar
    17    17    18   ar
    18    18    19   ar
    19    19    20   ar
    20     5    21   ar
    21    21    22   ar
    22    22     2   ar
    23    14     9   ar
    24    20    15   ar
    25     3    23    1
    26     4    24    1
    27     6    25    1
    28     7    26    1
    29    10    27    1
    30    11    28    1
    31    12    29    1
    32    13    30    1
    33    14    31    1
    34    16    32    1
    35    17    33    1
    36    18    34    1
    37    19    35    1
    38    20    36    1
    39    21    37    1
    40    22    38    1
