@<TRIPOS>MOLECULE
*****
 32 33 0 0 0
SMALL
GASTEIGER

@<TRIPOS>ATOM
      1 BR          5.2683   -0.8480   -0.9228 Br      1  UNL1        0.0000
      2 C           3.6034   -0.0219   -0.4893 C.2     1  UNL1        0.0000
      3 C           2.4423   -0.6448   -0.6152 C.2     1  UNL1        0.0000
      4 N           1.2062   -0.0362   -0.2950 N.pl3   1  UNL1        0.5000
      5 C           1.2466    1.3093    0.1823 C.2     1  UNL1        0.0000
      6 C           2.5254    2.0060    0.3248 C.2     1  UNL1        0.0000
      7 C           3.6366    1.3616    0.0022 C.2     1  UNL1        0.0000
      8 N           0.0696    1.7452    0.4357 N.2     1  UNL1        0.5000
      9 B          -0.2695   -0.4484   -0.3194 B       1  UNL1        0.0000
     10 O          -0.5604   -0.7836   -1.6960 O.3     1  UNL1        0.0000
     11 C          -0.9992   -2.0720   -1.9040 C.3     1  UNL1        0.0000
     12 O          -0.4511   -1.5095    0.6283 O.3     1  UNL1        0.0000
     13 C           0.6447   -1.9273    1.3302 C.3     1  UNL1        0.0000
     14 N          -0.9350    0.8075    0.1841 N.2     1  UNL1        1.0000
     15 C          -2.1875    1.0688    0.3812 C.2     1  UNL1        0.0000
     16 C          -2.5743    2.4121    0.8928 C.3     1  UNL1        0.0000
     17 C          -3.2064    0.0404    0.0984 C.3     1  UNL1        0.0000
     18 H           2.4569   -1.6469   -0.9744 H       1  UNL1        0.0000
     19 H           2.5763    3.0359    0.6884 H       1  UNL1        0.0000
     20 H           4.5846    1.8938    0.1134 H       1  UNL1        0.0000
     21 H          -1.9188   -2.3033   -1.3611 H       1  UNL1        0.0000
     22 H          -1.2003   -2.1447   -3.0057 H       1  UNL1        0.0000
     23 H          -0.2197   -2.8373   -1.7057 H       1  UNL1        0.0000
     24 H           0.2643   -2.3711    2.2845 H       1  UNL1        0.0000
     25 H           1.1790   -2.7080    0.7576 H       1  UNL1        0.0000
     26 H           1.2619   -1.0585    1.5962 H       1  UNL1        0.0000
     27 H          -2.1241    2.6407    1.8758 H       1  UNL1        0.0000
     28 H          -2.2496    3.2138    0.1971 H       1  UNL1        0.0000
     29 H          -3.6550    2.4929    1.0140 H       1  UNL1        0.0000
     30 H          -3.3857   -0.1458   -0.9777 H       1  UNL1        0.0000
     31 H          -2.8769   -0.8657    0.6559 H       1  UNL1        0.0000
     32 H          -4.1527    0.3449    0.6239 H       1  UNL1        0.0000
@<TRIPOS>UNITY_ATOM_ATTR
9 1
charge -1
14 1
charge 1
@<TRIPOS>BOND
     1     1     2    1
     2     2     3    2
     3     3     4    1
     4     4     5    1
     5     5     6    1
     6     6     7    2
     7     5     8    2
     8     4     9    1
     9     9    10    1
    10    10    11    1
    11     9    12    1
    12    12    13    1
    13     9    14    1
    14    14    15    2
    15    15    16    1
    16    15    17    1
    17     7     2    1
    18    14     8    1
    19     3    18    1
    20     6    19    1
    21     7    20    1
    22    11    21    1
    23    11    22    1
    24    11    23    1
    25    13    24    1
    26    13    25    1
    27    13    26    1
    28    16    27    1
    29    16    28    1
    30    16    29    1
    31    17    30    1
    32    17    31    1
    33    17    32    1
