@<TRIPOS>MOLECULE
*****
 30 33 0 0 0
SMALL
GASTEIGER

@<TRIPOS>ATOM
      1 BR          6.1641   -0.7821    0.9682 Br      1  UNL1       -0.0085
      2 C           4.3025   -0.4731    0.7316 C.ar    1  UNL1        0.1703
      3 C           3.5829    0.5388    1.3237 C.ar    1  UNL1       -0.0089
      4 C           2.2490    0.3922    0.8723 C.ar    1  UNL1       -0.0160
      5 C           2.2357   -0.7036    0.0295 C.ar    1  UNL1        0.1446
      6 C           1.1520   -1.3892   -0.7713 C.3     1  UNL1        0.1450
      7 N           0.5934   -0.5613   -1.8388 N.pl3   1  UNL1       -0.3194
      8 C          -0.4508    0.2952   -1.4453 C.ar    1  UNL1        0.0383
      9 C          -0.7935    1.3905   -2.2448 C.ar    1  UNL1       -0.0401
     10 C          -1.8653    2.2135   -1.8986 C.ar    1  UNL1       -0.0594
     11 C          -2.6293    1.9287   -0.7665 C.ar    1  UNL1       -0.0539
     12 C          -2.3381    0.8069    0.0237 C.ar    1  UNL1       -0.0144
     13 C          -3.1144    0.4670    1.1415 C.ar    1  UNL1       -0.0539
     14 C          -2.8260   -0.6810    1.8798 C.ar    1  UNL1       -0.0594
     15 C          -1.7505   -1.4932    1.5194 C.ar    1  UNL1       -0.0401
     16 C          -0.9302   -1.1491    0.4400 C.ar    1  UNL1        0.0383
     17 C          -1.2424   -0.0158   -0.3280 C.ar    1  UNL1        0.0239
     18 N           0.1131   -2.0083    0.0499 N.pl3   1  UNL1       -0.3194
     19 O           3.4946   -1.2323   -0.0555 O.2     1  UNL1       -0.4496
     20 H           3.9691    1.2904    1.9977 H       1  UNL1        0.0661
     21 H           1.3937    1.0054    1.1245 H       1  UNL1        0.0653
     22 H           1.6456   -2.2242   -1.2855 H       1  UNL1        0.0790
     23 H           1.3172   -0.0786   -2.3570 H       1  UNL1        0.1482
     24 H          -0.2262    1.6092   -3.1453 H       1  UNL1        0.0636
     25 H          -2.1149    3.0688   -2.5210 H       1  UNL1        0.0618
     26 H          -3.4683    2.5748   -0.5189 H       1  UNL1        0.0624
     27 H          -3.9639    1.0816    1.4303 H       1  UNL1        0.0624
     28 H          -3.4494   -0.9521    2.7277 H       1  UNL1        0.0618
     29 H          -1.5565   -2.3990    2.0869 H       1  UNL1        0.0636
     30 H           0.5069   -2.5201    0.8300 H       1  UNL1        0.1482
@<TRIPOS>BOND
     1     1     2    1
     2     2     3   ar
     3     3     4   ar
     4     4     5   ar
     5     5     6    1
     6     6     7    1
     7     7     8    1
     8     8     9   ar
     9     9    10   ar
    10    10    11   ar
    11    11    12   ar
    12    12    13   ar
    13    13    14   ar
    14    14    15   ar
    15    15    16   ar
    16    16    17   ar
    17    16    18    1
    18     5    19   ar
    19    19     2   ar
    20    18     6    1
    21    17     8   ar
    22    17    12   ar
    23     3    20    1
    24     4    21    1
    25     6    22    1
    26     7    23    1
    27     9    24    1
    28    10    25    1
    29    11    26    1
    30    13    27    1
    31    14    28    1
    32    15    29    1
    33    18    30    1
