@<TRIPOS>MOLECULE
*****
 31 33 0 0 0
SMALL
GASTEIGER

@<TRIPOS>ATOM
      1 BR          6.2854   -0.9539   -0.9443 Br      1  UNL1       -0.0503
      2 C           4.5582   -0.5709   -0.2790 C.ar    1  UNL1        0.0179
      3 C           3.9061    0.5944   -0.6786 C.ar    1  UNL1       -0.0471
      4 C           2.6286    0.8776   -0.1868 C.ar    1  UNL1       -0.0500
      5 C           1.9947   -0.0082    0.6959 C.ar    1  UNL1        0.0193
      6 C           0.6657    0.2713    1.2287 C.ar    1  UNL1        0.1642
      7 N           0.3584    0.3295    2.5110 N.ar    1  UNL1       -0.1292
      8 N          -0.9739    0.6325    2.6302 N.ar    1  UNL1       -0.1340
      9 C          -1.4771    0.7289    1.4200 C.ar    1  UNL1        0.1337
     10 N          -0.4861    0.4799    0.5051 N.ar    1  UNL1       -0.3109
     11 C          -0.6750    0.3954   -0.9257 C.3     1  UNL1        0.0264
     12 C          -1.6930   -0.6658   -1.3423 C.3     1  UNL1       -0.0349
     13 C          -3.1498   -0.2516   -1.1272 C.3     1  UNL1       -0.0511
     14 C          -3.5707   -0.1146    0.3373 C.3     1  UNL1       -0.0461
     15 C          -2.8868    1.0365    1.0705 C.3     1  UNL1        0.0075
     16 C           2.6727   -1.1648    1.1038 C.ar    1  UNL1       -0.0500
     17 C           3.9496   -1.4508    0.6134 C.ar    1  UNL1       -0.0471
     18 H           4.3861    1.2917   -1.3604 H       1  UNL1        0.0629
     19 H           2.1415    1.8038   -0.4831 H       1  UNL1        0.0625
     20 H          -0.9614    1.3923   -1.2794 H       1  UNL1        0.0493
     21 H           0.2832    0.1474   -1.3896 H       1  UNL1        0.0493
     22 H          -1.5603   -0.8578   -2.4145 H       1  UNL1        0.0282
     23 H          -1.4939   -1.6127   -0.8254 H       1  UNL1        0.0282
     24 H          -3.3497    0.6868   -1.6590 H       1  UNL1        0.0266
     25 H          -3.7898   -1.0117   -1.5926 H       1  UNL1        0.0266
     26 H          -4.6528    0.0664    0.3555 H       1  UNL1        0.0269
     27 H          -3.4021   -1.0627    0.8632 H       1  UNL1        0.0269
     28 H          -3.4369    1.2335    1.9990 H       1  UNL1        0.0344
     29 H          -2.9359    1.9574    0.4778 H       1  UNL1        0.0344
     30 H           2.2063   -1.8463    1.8139 H       1  UNL1        0.0625
     31 H           4.4588   -2.3535    0.9404 H       1  UNL1        0.0629
@<TRIPOS>BOND
     1     1     2    1
     2     2     3   ar
     3     3     4   ar
     4     4     5   ar
     5     5     6    1
     6     6     7   ar
     7     7     8   ar
     8     8     9   ar
     9     9    10   ar
    10    10    11    1
    11    11    12    1
    12    12    13    1
    13    13    14    1
    14    14    15    1
    15     5    16   ar
    16    16    17   ar
    17    17     2   ar
    18    10     6   ar
    19    15     9    1
    20     3    18    1
    21     4    19    1
    22    11    20    1
    23    11    21    1
    24    12    22    1
    25    12    23    1
    26    13    24    1
    27    13    25    1
    28    14    26    1
    29    14    27    1
    30    15    28    1
    31    15    29    1
    32    16    30    1
    33    17    31    1
