@<TRIPOS>MOLECULE
*****
 34 37 0 0 0
SMALL
GASTEIGER

@<TRIPOS>ATOM
      1 BR          8.0575    1.8214    3.0221 Br      1  UNL1       -0.0085
      2 C           7.1187    0.9557    1.6124 C.ar    1  UNL1        0.1708
      3 C           7.6937    0.1710    0.6401 C.ar    1  UNL1       -0.0086
      4 C           6.6329   -0.2624   -0.1928 C.ar    1  UNL1       -0.0115
      5 C           5.4729    0.2848    0.3232 C.ar    1  UNL1        0.1765
      6 C           4.0345    0.0936   -0.2519 C.ar    1  UNL1        0.2375
      7 N           3.7798   -0.6400   -1.3456 N.ar    1  UNL1       -0.0527
      8 O           2.3949   -0.5381   -1.4867 O.2     1  UNL1       -0.3340
      9 C           1.9580    0.2486   -0.4599 C.ar    1  UNL1        0.2654
     10 C           0.5022    0.5271   -0.4044 C.3     1  UNL1        0.1677
     11 O          -0.1533   -0.7088   -0.1233 O.3     1  UNL1       -0.4825
     12 C          -1.5191   -0.6878   -0.0536 C.ar    1  UNL1        0.1218
     13 C          -2.1048   -1.9330    0.1735 C.ar    1  UNL1       -0.0193
     14 C          -3.4920   -2.0612    0.2669 C.ar    1  UNL1       -0.0506
     15 C          -4.3210   -0.9391    0.1354 C.ar    1  UNL1       -0.0177
     16 C          -5.7180   -1.0478    0.2264 C.ar    1  UNL1       -0.0540
     17 C          -6.5306    0.0789    0.0947 C.ar    1  UNL1       -0.0612
     18 C          -5.9573    1.3268   -0.1290 C.ar    1  UNL1       -0.0612
     19 C          -4.5698    1.4508   -0.2219 C.ar    1  UNL1       -0.0539
     20 C          -3.7359    0.3273   -0.0924 C.ar    1  UNL1       -0.0144
     21 C          -2.3350    0.4381   -0.1840 C.ar    1  UNL1       -0.0122
     22 N           2.9280    0.6733    0.3192 N.ar    1  UNL1       -0.1858
     23 O           5.7750    1.0308    1.4288 O.2     1  UNL1       -0.4450
     24 H           8.7448   -0.0613    0.5419 H       1  UNL1        0.0661
     25 H           6.6985   -0.8984   -1.0655 H       1  UNL1        0.0657
     26 H           0.1748    0.9279   -1.3707 H       1  UNL1        0.0797
     27 H           0.3046    1.2531    0.3926 H       1  UNL1        0.0797
     28 H          -1.4769   -2.8148    0.2788 H       1  UNL1        0.0654
     29 H          -3.9183   -3.0459    0.4440 H       1  UNL1        0.0625
     30 H          -6.1843   -2.0148    0.4016 H       1  UNL1        0.0624
     31 H          -7.6107   -0.0192    0.1675 H       1  UNL1        0.0618
     32 H          -6.5892    2.2053   -0.2310 H       1  UNL1        0.0618
     33 H          -4.1440    2.4364   -0.3964 H       1  UNL1        0.0624
     34 H          -1.9106    1.4219   -0.3554 H       1  UNL1        0.0660
@<TRIPOS>BOND
     1     1     2    1
     2     2     3   ar
     3     3     4   ar
     4     4     5   ar
     5     5     6    1
     6     6     7   ar
     7     7     8   ar
     8     8     9   ar
     9     9    10    1
    10    10    11    1
    11    11    12    1
    12    12    13   ar
    13    13    14   ar
    14    14    15   ar
    15    15    16   ar
    16    16    17   ar
    17    17    18   ar
    18    18    19   ar
    19    19    20   ar
    20    20    21   ar
    21     9    22   ar
    22     5    23   ar
    23    23     2   ar
    24    22     6   ar
    25    21    12   ar
    26    20    15   ar
    27     3    24    1
    28     4    25    1
    29    10    26    1
    30    10    27    1
    31    13    28    1
    32    14    29    1
    33    16    30    1
    34    17    31    1
    35    18    32    1
    36    19    33    1
    37    21    34    1
