@<TRIPOS>MOLECULE
*****
 23 24 0 0 0
SMALL
GASTEIGER

@<TRIPOS>ATOM
      1 BR         -4.7411    2.0155   -0.3081 Br      1  UNL1       -0.0503
      2 C          -3.2092    0.9101   -0.2442 C.ar    1  UNL1        0.0179
      3 C          -2.3612    0.8387   -1.3474 C.ar    1  UNL1       -0.0474
      4 C          -1.2287    0.0222   -1.3009 C.ar    1  UNL1       -0.0542
      5 C          -0.9397   -0.7257   -0.1506 C.ar    1  UNL1       -0.0078
      6 C           0.2880   -1.6011   -0.0896 C.3     1  UNL1        0.1410
      7 O           1.1701   -1.1697    0.9498 O.3     1  UNL1       -0.4059
      8 N           2.0496   -0.2158    0.4374 N.ar    1  UNL1       -0.1772
      9 C           3.2844   -0.4819   -0.0705 C.ar    1  UNL1        0.0638
     10 C           3.7921    0.7534   -0.4037 C.ar    1  UNL1        0.0488
     11 N           2.9033    1.7535   -0.0861 N.ar    1  UNL1       -0.2408
     12 C           1.8705    1.1354    0.4482 C.ar    1  UNL1        0.1322
     13 C          -1.8024   -0.6411    0.9527 C.ar    1  UNL1       -0.0542
     14 C          -2.9351    0.1742    0.9063 C.ar    1  UNL1       -0.0474
     15 H          -2.5703    1.4152   -2.2450 H       1  UNL1        0.0629
     16 H          -0.5721   -0.0179   -2.1680 H       1  UNL1        0.0622
     17 H           0.7993   -1.6596   -1.0597 H       1  UNL1        0.0774
     18 H          -0.0261   -2.6237    0.1509 H       1  UNL1        0.0774
     19 H           3.6780   -1.4837   -0.1468 H       1  UNL1        0.0860
     20 H           4.7536    0.9795   -0.8474 H       1  UNL1        0.0846
     21 H           0.9792    1.6009    0.8447 H       1  UNL1        0.1061
     22 H          -1.5903   -1.2080    1.8576 H       1  UNL1        0.0622
     23 H          -3.5922    0.2295    1.7702 H       1  UNL1        0.0629
@<TRIPOS>BOND
     1     1     2    1
     2     2     3   ar
     3     3     4   ar
     4     4     5   ar
     5     5     6    1
     6     6     7    1
     7     7     8    1
     8     8     9   ar
     9     9    10   ar
    10    10    11   ar
    11    11    12   ar
    12     5    13   ar
    13    13    14   ar
    14    14     2   ar
    15    12     8   ar
    16     3    15    1
    17     4    16    1
    18     6    17    1
    19     6    18    1
    20     9    19    1
    21    10    20    1
    22    12    21    1
    23    13    22    1
    24    14    23    1
