@<TRIPOS>MOLECULE
*****
 36 39 0 0 0
SMALL
GASTEIGER

@<TRIPOS>ATOM
      1 SI          1.9528    0.2273    0.4967 Si      1  UNL1        0.0000
      2 C           0.6889    0.0999   -0.9240 C.2     1  UNL1        0.0000
      3 C           1.2905   -0.3328   -2.0549 C.2     1  UNL1        0.0000
      4 C           2.7088   -0.6460   -1.9313 C.2     1  UNL1        0.0000
      5 C           3.2553   -0.4100   -0.7183 C.2     1  UNL1        0.0000
      6 C           4.5910   -0.7108   -0.3843 C.ar    1  UNL1        0.0000
      7 C           5.4148   -1.7861   -0.6617 C.ar    1  UNL1        0.0000
      8 C           6.6673   -1.5475   -0.0452 C.ar    1  UNL1        0.0000
      9 C           6.5921   -0.3175    0.5667 C.ar    1  UNL1        0.0000
     10 N           5.3385    0.1906    0.3427 N.ar    1  UNL1        0.0000
     11 C          -0.6863    0.4626   -0.7573 C.2     1  UNL1        0.0000
     12 SI         -1.8809   -0.5518    0.3254 Si      1  UNL1        0.0000
     13 C          -3.2435    0.6553   -0.1899 C.2     1  UNL1        0.0000
     14 C          -2.7538    1.6059   -1.0118 C.2     1  UNL1        0.0000
     15 C          -1.3406    1.4865   -1.3448 C.2     1  UNL1        0.0000
     16 C          -4.5867    0.6108    0.2394 C.ar    1  UNL1        0.0000
     17 C          -5.4977    1.5899    0.5897 C.ar    1  UNL1        0.0000
     18 C          -6.7242    0.9544    0.9088 C.ar    1  UNL1        0.0000
     19 C          -6.5419   -0.3964    0.7345 C.ar    1  UNL1        0.0000
     20 N          -5.2485   -0.5962    0.3234 N.ar    1  UNL1        0.0000
     21 H           2.2358    1.6309    0.9021 H       1  UNL1        0.0000
     22 H           1.6525   -0.7224    1.5987 H       1  UNL1        0.0000
     23 H           0.7746   -0.4856   -2.9984 H       1  UNL1        0.0000
     24 H           3.2527   -1.0531   -2.7785 H       1  UNL1        0.0000
     25 H           5.1337   -2.6640   -1.2298 H       1  UNL1        0.0000
     26 H           7.5306   -2.2000   -0.0539 H       1  UNL1        0.0000
     27 H           7.3223    0.2422    1.1364 H       1  UNL1        0.0000
     28 H           5.0234    1.1006    0.6524 H       1  UNL1        0.0000
     29 H          -2.1410   -1.9146   -0.2222 H       1  UNL1        0.0000
     30 H          -1.5384   -0.4862    1.7728 H       1  UNL1        0.0000
     31 H          -3.3448    2.4126   -1.4320 H       1  UNL1        0.0000
     32 H          -0.8786    2.1930   -2.0284 H       1  UNL1        0.0000
     33 H          -5.2973    2.6542    0.6164 H       1  UNL1        0.0000
     34 H          -7.6418    1.4336    1.2221 H       1  UNL1        0.0000
     35 H          -7.2209   -1.2315    0.8555 H       1  UNL1        0.0000
     36 H          -4.8586   -1.4977    0.0875 H       1  UNL1        0.0000
@<TRIPOS>BOND
     1     1     2    1
     2     2     3    2
     3     3     4    1
     4     4     5    2
     5     5     6    1
     6     6     7   ar
     7     7     8   ar
     8     8     9   ar
     9     9    10   ar
    10     2    11    1
    11    11    12    1
    12    12    13    1
    13    13    14    2
    14    14    15    1
    15    13    16    1
    16    16    17   ar
    17    17    18   ar
    18    18    19   ar
    19    19    20   ar
    20     5     1    1
    21    10     6   ar
    22    15    11    2
    23    20    16   ar
    24     1    21    1
    25     1    22    1
    26     3    23    1
    27     4    24    1
    28     7    25    1
    29     8    26    1
    30     9    27    1
    31    10    28    1
    32    12    29    1
    33    12    30    1
    34    14    31    1
    35    15    32    1
    36    17    33    1
    37    18    34    1
    38    19    35    1
    39    20    36    1
