@<TRIPOS>MOLECULE
*****
 34 38 0 0 0
SMALL
GASTEIGER

@<TRIPOS>ATOM
      1 C          -8.1100    1.2610   -2.1659 C.1     1  UNL1       -0.1134
      2 C          -7.0165    1.0798   -1.7046 C.1     1  UNL1       -0.0624
      3 C          -5.7152    0.8642   -1.1556 C.ar    1  UNL1        0.0643
      4 C          -5.4666    0.6887    0.2031 C.ar    1  UNL1       -0.0150
      5 C          -4.0748    0.4992    0.4073 C.ar    1  UNL1        0.0587
      6 C          -3.4149    0.5454   -0.7715 C.ar    1  UNL1        0.0526
      7 S          -4.2977    0.8012   -2.1634 S.2     1  UNL1       -0.0772
      8 C          -2.0980    0.3570   -0.5559 C.ar    1  UNL1        0.0526
      9 S          -0.7899    0.3002   -1.5892 S.2     1  UNL1       -0.0772
     10 C           0.2008    0.0165   -0.1878 C.ar    1  UNL1        0.0649
     11 C           1.6143   -0.1559   -0.2907 C.1     1  UNL1       -0.0537
     12 C           2.8039   -0.3012   -0.3691 C.1     1  UNL1       -0.0583
     13 C           4.2154   -0.4730   -0.4601 C.ar    1  UNL1        0.0534
     14 C           4.9084   -0.3801   -1.6809 C.ar    1  UNL1       -0.0441
     15 C           6.3096   -0.5487   -1.7794 C.ar    1  UNL1       -0.0584
     16 C           7.1300   -0.8230   -0.6699 C.ar    1  UNL1       -0.0334
     17 C           6.4796   -0.9264    0.5848 C.ar    1  UNL1        0.1011
     18 N           7.0787   -1.1810    1.7579 N.ar    1  UNL1       -0.1907
     19 S           5.8774   -1.1966    2.9041 S.2     1  UNL1        0.1165
     20 N           4.5440   -0.8809    1.9680 N.ar    1  UNL1       -0.1895
     21 C           4.9827   -0.7482    0.7027 C.ar    1  UNL1        0.1152
     22 C          -0.4975   -0.0254    1.0158 C.ar    1  UNL1       -0.0150
     23 C          -1.8791    0.1837    0.7666 C.ar    1  UNL1        0.0587
     24 N          -3.1116    0.2795    1.3558 N.ar    1  UNL1       -0.3420
     25 C          -3.3654    0.1314    2.7637 C.3     1  UNL1        0.0125
     26 H          -9.0776    1.4220   -2.5801 H       1  UNL1        0.1232
     27 H          -6.2274    0.6976    0.9727 H       1  UNL1        0.0656
     28 H           4.3474   -0.1687   -2.5922 H       1  UNL1        0.0630
     29 H           6.7757   -0.4610   -2.7617 H       1  UNL1        0.0619
     30 H           8.2022   -0.9493   -0.7622 H       1  UNL1        0.0640
     31 H          -0.0416   -0.1919    1.9834 H       1  UNL1        0.0656
     32 H          -4.1921    0.7860    3.0516 H       1  UNL1        0.0456
     33 H          -3.6230   -0.9129    2.9574 H       1  UNL1        0.0456
     34 H          -2.4712    0.4107    3.3269 H       1  UNL1        0.0456
@<TRIPOS>BOND
     1     1     2    3
     2     2     3    1
     3     3     4   ar
     4     4     5   ar
     5     5     6   ar
     6     6     7   ar
     7     6     8   ar
     8     8     9   ar
     9     9    10   ar
    10    10    11    1
    11    11    12    3
    12    12    13    1
    13    13    14   ar
    14    14    15   ar
    15    15    16   ar
    16    16    17   ar
    17    17    18   ar
    18    18    19   ar
    19    19    20   ar
    20    20    21   ar
    21    10    22   ar
    22    22    23   ar
    23    23    24   ar
    24    24    25    1
    25     7     3   ar
    26    23     8   ar
    27    24     5   ar
    28    21    13   ar
    29    21    17   ar
    30     1    26    1
    31     4    27    1
    32    14    28    1
    33    15    29    1
    34    16    30    1
    35    22    31    1
    36    25    32    1
    37    25    33    1
    38    25    34    1
