@<TRIPOS>MOLECULE
*****
 54 60 0 0 0
SMALL
GASTEIGER

@<TRIPOS>ATOM
      1 C          10.8989   -3.3248   -0.2159 C.1     1  UNL1       -0.1134
      2 C           9.8644   -2.7646    0.0242 C.1     1  UNL1       -0.0624
      3 C           8.6339   -2.0948    0.3064 C.ar    1  UNL1        0.0643
      4 C           8.1413   -1.8850    1.5927 C.ar    1  UNL1       -0.0150
      5 C           6.9066   -1.1883    1.5175 C.ar    1  UNL1        0.0587
      6 C           6.5816   -0.9448    0.2277 C.ar    1  UNL1        0.0526
      7 S           7.6239   -1.4688   -0.9650 S.2     1  UNL1       -0.0772
      8 C           5.4055   -0.2891    0.1775 C.ar    1  UNL1        0.0526
      9 S           4.4915    0.2770   -1.0982 S.2     1  UNL1       -0.0772
     10 C           3.3485    0.8497    0.0823 C.ar    1  UNL1        0.0649
     11 C           2.1511    1.5256   -0.3026 C.1     1  UNL1       -0.0532
     12 C           1.1427    2.0903   -0.6289 C.1     1  UNL1       -0.0511
     13 C          -0.0565    2.7551   -1.0224 C.ar    1  UNL1        0.0898
     14 S          -0.0752    4.3787   -1.5888 S.2     1  UNL1       -0.0840
     15 C          -1.7748    4.3615   -1.8251 C.ar    1  UNL1        0.0044
     16 C          -2.3117    3.1478   -1.4784 C.ar    1  UNL1        0.0982
     17 N          -3.6381    2.8810   -1.5709 N.ar    1  UNL1       -0.2424
     18 C          -3.9318    1.6043   -1.1581 C.ar    1  UNL1        0.0976
     19 C          -5.3808    1.3160   -1.2038 C.ar    1  UNL1        0.0025
     20 C          -6.0870    0.8812   -0.0680 C.ar    1  UNL1       -0.0525
     21 C          -7.4568    0.6108   -0.1314 C.ar    1  UNL1       -0.0611
     22 C          -8.1478    0.7825   -1.3288 C.ar    1  UNL1       -0.0617
     23 C          -7.4729    1.2305   -2.4615 C.ar    1  UNL1       -0.0611
     24 C          -6.1033    1.4988   -2.3974 C.ar    1  UNL1       -0.0525
     25 C          -2.9490    0.6640   -0.7135 C.ar    1  UNL1        0.0976
     26 C          -3.2605   -0.7298   -0.3318 C.ar    1  UNL1        0.0025
     27 C          -2.8620   -1.2278    0.9224 C.ar    1  UNL1       -0.0525
     28 C          -3.1484   -2.5412    1.3035 C.ar    1  UNL1       -0.0611
     29 C          -3.8315   -3.3849    0.4318 C.ar    1  UNL1       -0.0617
     30 C          -4.2197   -2.9198   -0.8225 C.ar    1  UNL1       -0.0611
     31 C          -3.9311   -1.6060   -1.2032 C.ar    1  UNL1       -0.0525
     32 N          -1.6103    0.9485   -0.6094 N.ar    1  UNL1       -0.2412
     33 C          -1.3235    2.2165   -1.0110 C.ar    1  UNL1        0.1124
     34 C           3.7035    0.5923    1.4045 C.ar    1  UNL1       -0.0150
     35 C           4.9458   -0.0934    1.4337 C.ar    1  UNL1        0.0587
     36 N           5.8869   -0.6512    2.2578 N.ar    1  UNL1       -0.3420
     37 C           5.7986   -0.6912    3.6927 C.3     1  UNL1        0.0125
     38 H          11.8157   -3.8202   -0.4357 H       1  UNL1        0.1232
     39 H           8.6363   -2.2068    2.4999 H       1  UNL1        0.0656
     40 H          -2.2924    5.2325   -2.2012 H       1  UNL1        0.0716
     41 H          -5.5750    0.7514    0.8841 H       1  UNL1        0.0624
     42 H          -7.9833    0.2701    0.7569 H       1  UNL1        0.0618
     43 H          -9.2136    0.5754   -1.3767 H       1  UNL1        0.0618
     44 H          -8.0111    1.3772   -3.3948 H       1  UNL1        0.0618
     45 H          -5.5932    1.8587   -3.2901 H       1  UNL1        0.0624
     46 H          -2.3159   -0.5851    1.6113 H       1  UNL1        0.0624
     47 H          -2.8315   -2.9049    2.2778 H       1  UNL1        0.0618
     48 H          -4.0526   -4.4079    0.7256 H       1  UNL1        0.0618
     49 H          -4.7434   -3.5800   -1.5093 H       1  UNL1        0.0618
     50 H          -4.2330   -1.2742   -2.1952 H       1  UNL1        0.0624
     51 H           3.1133    0.8772    2.2660 H       1  UNL1        0.0656
     52 H           5.3439    0.2368    4.0503 H       1  UNL1        0.0456
     53 H           5.1829   -1.5494    3.9745 H       1  UNL1        0.0456
     54 H           6.8009   -0.7899    4.1184 H       1  UNL1        0.0456
@<TRIPOS>BOND
     1     1     2    3
     2     2     3    1
     3     3     4   ar
     4     4     5   ar
     5     5     6   ar
     6     6     7   ar
     7     6     8   ar
     8     8     9   ar
     9     9    10   ar
    10    10    11    1
    11    11    12    3
    12    12    13    1
    13    13    14   ar
    14    14    15   ar
    15    15    16   ar
    16    16    17   ar
    17    17    18   ar
    18    18    19    1
    19    19    20   ar
    20    20    21   ar
    21    21    22   ar
    22    22    23   ar
    23    23    24   ar
    24    18    25   ar
    25    25    26    1
    26    26    27   ar
    27    27    28   ar
    28    28    29   ar
    29    29    30   ar
    30    30    31   ar
    31    25    32   ar
    32    32    33   ar
    33    10    34   ar
    34    34    35   ar
    35    35    36   ar
    36    36    37    1
    37     7     3   ar
    38    35     8   ar
    39    36     5   ar
    40    33    13   ar
    41    33    16   ar
    42    24    19   ar
    43    31    26   ar
    44     1    38    1
    45     4    39    1
    46    15    40    1
    47    20    41    1
    48    21    42    1
    49    22    43    1
    50    23    44    1
    51    24    45    1
    52    27    46    1
    53    28    47    1
    54    29    48    1
    55    30    49    1
    56    31    50    1
    57    34    51    1
    58    37    52    1
    59    37    53    1
    60    37    54    1
