@<TRIPOS>MOLECULE
*****
 50 54 0 0 0
SMALL
GASTEIGER

@<TRIPOS>ATOM
      1 C           8.7366   -0.5663    2.8187 C.1     1  UNL1       -0.1134
      2 C           7.7318   -0.4177    2.1767 C.1     1  UNL1       -0.0622
      3 C           6.5328   -0.2437    1.4178 C.ar    1  UNL1        0.0660
      4 S           5.5564    1.1428    1.5861 S.2     1  UNL1       -0.0709
      5 C           4.4394    0.5831    0.4276 C.ar    1  UNL1        0.0666
      6 C           3.2723    1.3302    0.0831 C.1     1  UNL1       -0.0530
      7 C           2.2827    1.9439   -0.2109 C.1     1  UNL1       -0.0511
      8 C           1.0977    2.6541   -0.5648 C.ar    1  UNL1        0.0898
      9 S           1.1185    4.2792   -1.1250 S.2     1  UNL1       -0.0840
     10 C          -0.5884    4.3250   -1.2999 C.ar    1  UNL1        0.0044
     11 C          -1.1565    3.1289   -0.9401 C.ar    1  UNL1        0.0982
     12 N          -2.4943    2.9098   -0.9849 N.ar    1  UNL1       -0.2424
     13 C          -2.8182    1.6413   -0.5674 C.ar    1  UNL1        0.0976
     14 C          -4.2776    1.4082   -0.5495 C.ar    1  UNL1        0.0025
     15 C          -5.0451    1.6197   -1.7097 C.ar    1  UNL1       -0.0525
     16 C          -6.4252    1.4007   -1.7127 C.ar    1  UNL1       -0.0611
     17 C          -7.0651    0.9751   -0.5509 C.ar    1  UNL1       -0.0617
     18 C          -6.3284    0.7772    0.6145 C.ar    1  UNL1       -0.0611
     19 C          -4.9480    0.9977    0.6167 C.ar    1  UNL1       -0.0525
     20 C          -1.8539    0.6606   -0.1720 C.ar    1  UNL1        0.0976
     21 C          -2.1996   -0.7268    0.2080 C.ar    1  UNL1        0.0025
     22 C          -1.7460   -1.2624    1.4278 C.ar    1  UNL1       -0.0525
     23 C          -2.0619   -2.5703    1.8071 C.ar    1  UNL1       -0.0611
     24 C          -2.8311   -3.3717    0.9678 C.ar    1  UNL1       -0.0617
     25 C          -3.2760   -2.8699   -0.2532 C.ar    1  UNL1       -0.0611
     26 C          -2.9572   -1.5620   -0.6325 C.ar    1  UNL1       -0.0525
     27 N          -0.5025    0.8960   -0.1204 N.ar    1  UNL1       -0.2412
     28 C          -0.1862    2.1588   -0.5171 C.ar    1  UNL1        0.1124
     29 C           4.8006   -0.6422   -0.1125 C.ar    1  UNL1       -0.0238
     30 C           4.0200   -1.3766   -1.1632 C.3     1  UNL1       -0.0377
     31 C           6.0272   -1.1405    0.4879 C.ar    1  UNL1       -0.0238
     32 C           6.6666   -2.4502    0.1329 C.3     1  UNL1       -0.0377
     33 H           9.6250   -0.6966    3.3922 H       1  UNL1        0.1232
     34 H          -1.0869    5.2170   -1.6520 H       1  UNL1        0.0716
     35 H          -4.5622    1.9631   -2.6239 H       1  UNL1        0.0624
     36 H          -6.9989    1.5682   -2.6210 H       1  UNL1        0.0618
     37 H          -8.1390    0.8064   -0.5512 H       1  UNL1        0.0618
     38 H          -6.8270    0.4545    1.5255 H       1  UNL1        0.0618
     39 H          -4.3988    0.8481    1.5447 H       1  UNL1        0.0624
     40 H          -1.1334   -0.6537    2.0918 H       1  UNL1        0.0624
     41 H          -1.7012   -2.9622    2.7551 H       1  UNL1        0.0618
     42 H          -3.0767   -4.3898    1.2611 H       1  UNL1        0.0618
     43 H          -3.8688   -3.4967   -0.9149 H       1  UNL1        0.0618
     44 H          -3.3062   -1.2022   -1.5990 H       1  UNL1        0.0624
     45 H           3.3455   -2.0998   -0.6904 H       1  UNL1        0.0278
     46 H           4.6879   -1.9150   -1.8438 H       1  UNL1        0.0278
     47 H           3.4211   -0.6959   -1.7769 H       1  UNL1        0.0278
     48 H           5.9193   -3.1844   -0.1913 H       1  UNL1        0.0278
     49 H           7.1921   -2.8864    0.9903 H       1  UNL1        0.0278
     50 H           7.3867   -2.3065   -0.6826 H       1  UNL1        0.0278
@<TRIPOS>BOND
     1     1     2    3
     2     2     3    1
     3     3     4   ar
     4     4     5   ar
     5     5     6    1
     6     6     7    3
     7     7     8    1
     8     8     9   ar
     9     9    10   ar
    10    10    11   ar
    11    11    12   ar
    12    12    13   ar
    13    13    14    1
    14    14    15   ar
    15    15    16   ar
    16    16    17   ar
    17    17    18   ar
    18    18    19   ar
    19    13    20   ar
    20    20    21    1
    21    21    22   ar
    22    22    23   ar
    23    23    24   ar
    24    24    25   ar
    25    25    26   ar
    26    20    27   ar
    27    27    28   ar
    28     5    29   ar
    29    29    30    1
    30    29    31   ar
    31    31    32    1
    32    31     3   ar
    33    28     8   ar
    34    28    11   ar
    35    19    14   ar
    36    26    21   ar
    37     1    33    1
    38    10    34    1
    39    15    35    1
    40    16    36    1
    41    17    37    1
    42    18    38    1
    43    19    39    1
    44    22    40    1
    45    23    41    1
    46    24    42    1
    47    25    43    1
    48    26    44    1
    49    30    45    1
    50    30    46    1
    51    30    47    1
    52    32    48    1
    53    32    49    1
    54    32    50    1
