@<TRIPOS>MOLECULE
*****
 85 92 0 0 0
SMALL
GASTEIGER

@<TRIPOS>ATOM
      1 C          -3.8247    0.4057   -0.2111 C.2     1  UNL1       -0.0540
      2 C          -2.9593   -0.4587    0.3454 C.2     1  UNL1       -0.0519
      3 C          -1.5005   -0.3647    0.2175 C.ar    1  UNL1        0.0032
      4 C          -0.8251    0.1732   -0.8965 C.ar    1  UNL1       -0.0519
      5 C           0.5850    0.2150   -1.0084 C.ar    1  UNL1       -0.0519
      6 C           1.4668   -0.2752   -0.0204 C.ar    1  UNL1        0.0032
      7 C           2.9204   -0.2030   -0.2287 C.2     1  UNL1       -0.0519
      8 C           3.8592   -0.1500    0.7305 C.2     1  UNL1       -0.0540
      9 C           5.3037   -0.0790    0.4646 C.ar    1  UNL1       -0.0249
     10 C           5.8421    0.6892   -0.5730 C.ar    1  UNL1       -0.0528
     11 C           7.2282    0.7595   -0.7622 C.ar    1  UNL1       -0.0395
     12 C           8.1147    0.0745    0.0858 C.ar    1  UNL1        0.0388
     13 N           9.5443    0.1603   -0.1024 N.pl3   1  UNL1       -0.2692
     14 C          10.1503    1.4126   -0.4901 C.ar    1  UNL1        0.0388
     15 C          11.1856    1.4495   -1.4419 C.ar    1  UNL1       -0.0400
     16 C          11.7721    2.6607   -1.8177 C.ar    1  UNL1       -0.0600
     17 C          11.3366    3.8545   -1.2462 C.ar    1  UNL1       -0.0616
     18 C          10.3151    3.8395   -0.2986 C.ar    1  UNL1       -0.0600
     19 C           9.7265    2.6287    0.0753 C.ar    1  UNL1       -0.0400
     20 C          10.3778   -0.9981    0.1196 C.ar    1  UNL1        0.0388
     21 C           9.9791   -2.2732   -0.3189 C.ar    1  UNL1       -0.0400
     22 C          10.7874   -3.3933   -0.1035 C.ar    1  UNL1       -0.0600
     23 C          12.0076   -3.2576    0.5544 C.ar    1  UNL1       -0.0616
     24 C          12.4215   -2.0033    0.9963 C.ar    1  UNL1       -0.0600
     25 C          11.6141   -0.8830    0.7809 C.ar    1  UNL1       -0.0400
     26 C           7.5638   -0.6868    1.1295 C.ar    1  UNL1       -0.0395
     27 C           6.1786   -0.7575    1.3200 C.ar    1  UNL1       -0.0528
     28 C           0.8485   -0.8656    1.1245 C.ar    1  UNL1        0.1076
     29 N           1.4533   -1.4444    2.1786 N.ar    1  UNL1       -0.1902
     30 S           0.2684   -1.9626    3.2085 S.2     1  UNL1        0.1165
     31 N          -1.0864   -1.5024    2.3793 N.ar    1  UNL1       -0.1902
     32 C          -0.6709   -0.9108    1.2429 C.ar    1  UNL1        0.1076
     33 C          -5.2857    0.2906   -0.0925 C.ar    1  UNL1       -0.0249
     34 C          -6.0814    0.6506   -1.1856 C.ar    1  UNL1       -0.0528
     35 C          -7.4767    0.5700   -1.1118 C.ar    1  UNL1       -0.0395
     36 C          -8.1160    0.1366    0.0609 C.ar    1  UNL1        0.0388
     37 N          -9.5545    0.0399    0.1325 N.pl3   1  UNL1       -0.2692
     38 C         -10.3776    1.0538   -0.4844 C.ar    1  UNL1        0.0388
     39 C         -10.0432    2.4162   -0.3851 C.ar    1  UNL1       -0.0400
     40 C         -10.8378    3.3971   -0.9846 C.ar    1  UNL1       -0.0600
     41 C         -11.9797    3.0319   -1.6942 C.ar    1  UNL1       -0.0616
     42 C         -12.3280    1.6879   -1.8064 C.ar    1  UNL1       -0.0600
     43 C         -11.5349    0.7074   -1.2048 C.ar    1  UNL1       -0.0400
     44 C         -10.1718   -1.0829    0.7997 C.ar    1  UNL1        0.0388
     45 C          -9.6438   -2.3804    0.6754 C.ar    1  UNL1       -0.0400
     46 C         -10.2440   -3.4667    1.3183 C.ar    1  UNL1       -0.0600
     47 C         -11.3835   -3.2753    2.0961 C.ar    1  UNL1       -0.0616
     48 C         -11.9231   -1.9990    2.2327 C.ar    1  UNL1       -0.0600
     49 C         -11.3229   -0.9126    1.5898 C.ar    1  UNL1       -0.0400
     50 C          -7.3105   -0.2016    1.1610 C.ar    1  UNL1       -0.0395
     51 C          -5.9144   -0.1204    1.0875 C.ar    1  UNL1       -0.0528
     52 H          -3.4766    1.2471   -0.8045 H       1  UNL1        0.0624
     53 H          -3.3232   -1.2955    0.9401 H       1  UNL1        0.0624
     54 H          -1.4038    0.5693   -1.7311 H       1  UNL1        0.0624
     55 H           1.0025    0.6588   -1.9142 H       1  UNL1        0.0624
     56 H           3.2231   -0.1785   -1.2731 H       1  UNL1        0.0624
     57 H           3.5905   -0.1667    1.7835 H       1  UNL1        0.0624
     58 H           5.1969    1.2528   -1.2417 H       1  UNL1        0.0624
     59 H           7.6124    1.3506   -1.5901 H       1  UNL1        0.0636
     60 H          11.5289    0.5302   -1.9114 H       1  UNL1        0.0636
     61 H          12.5661    2.6691   -2.5608 H       1  UNL1        0.0618
     62 H          11.7951    4.7959   -1.5378 H       1  UNL1        0.0618
     63 H           9.9769    4.7681    0.1543 H       1  UNL1        0.0618
     64 H           8.9435    2.6365    0.8305 H       1  UNL1        0.0636
     65 H           9.0391   -2.3997   -0.8506 H       1  UNL1        0.0636
     66 H          10.4631   -4.3698   -0.4551 H       1  UNL1        0.0618
     67 H          12.6357   -4.1291    0.7218 H       1  UNL1        0.0618
     68 H          13.3712   -1.8932    1.5132 H       1  UNL1        0.0618
     69 H          11.9493    0.0837    1.1510 H       1  UNL1        0.0636
     70 H           8.2125   -1.2158    1.8238 H       1  UNL1        0.0636
     71 H           5.7919   -1.3509    2.1461 H       1  UNL1        0.0624
     72 H          -5.6259    0.9828   -2.1156 H       1  UNL1        0.0624
     73 H          -8.0625    0.8290   -1.9909 H       1  UNL1        0.0636
     74 H          -9.1655    2.7232    0.1791 H       1  UNL1        0.0636
     75 H         -10.5651    4.4451   -0.8928 H       1  UNL1        0.0618
     76 H         -12.5982    3.7949   -2.1592 H       1  UNL1        0.0618
     77 H         -13.2147    1.3982   -2.3646 H       1  UNL1        0.0618
     78 H         -11.8150   -0.3375   -1.3184 H       1  UNL1        0.0636
     79 H          -8.7676   -2.5579    0.0561 H       1  UNL1        0.0636
     80 H          -9.8217   -4.4619    1.2057 H       1  UNL1        0.0618
     81 H         -11.8516   -4.1198    2.5952 H       1  UNL1        0.0618
     82 H         -12.8102   -1.8455    2.8419 H       1  UNL1        0.0618
     83 H         -11.7526    0.0774    1.7230 H       1  UNL1        0.0636
     84 H          -7.7684   -0.5149    2.0969 H       1  UNL1        0.0636
     85 H          -5.3304   -0.3728    1.9696 H       1  UNL1        0.0624
@<TRIPOS>BOND
     1     1     2    2
     2     2     3    1
     3     3     4   ar
     4     4     5   ar
     5     5     6   ar
     6     6     7    1
     7     7     8    2
     8     8     9    1
     9     9    10   ar
    10    10    11   ar
    11    11    12   ar
    12    12    13    1
    13    13    14    1
    14    14    15   ar
    15    15    16   ar
    16    16    17   ar
    17    17    18   ar
    18    18    19   ar
    19    13    20    1
    20    20    21   ar
    21    21    22   ar
    22    22    23   ar
    23    23    24   ar
    24    24    25   ar
    25    12    26   ar
    26    26    27   ar
    27     6    28   ar
    28    28    29   ar
    29    29    30   ar
    30    30    31   ar
    31    31    32   ar
    32     1    33    1
    33    33    34   ar
    34    34    35   ar
    35    35    36   ar
    36    36    37    1
    37    37    38    1
    38    38    39   ar
    39    39    40   ar
    40    40    41   ar
    41    41    42   ar
    42    42    43   ar
    43    37    44    1
    44    44    45   ar
    45    45    46   ar
    46    46    47   ar
    47    47    48   ar
    48    48    49   ar
    49    36    50   ar
    50    50    51   ar
    51    32     3   ar
    52    51    33   ar
    53    27     9   ar
    54    32    28   ar
    55    43    38   ar
    56    49    44   ar
    57    19    14   ar
    58    25    20   ar
    59     1    52    1
    60     2    53    1
    61     4    54    1
    62     5    55    1
    63     7    56    1
    64     8    57    1
    65    10    58    1
    66    11    59    1
    67    15    60    1
    68    16    61    1
    69    17    62    1
    70    18    63    1
    71    19    64    1
    72    21    65    1
    73    22    66    1
    74    23    67    1
    75    24    68    1
    76    25    69    1
    77    26    70    1
    78    27    71    1
    79    34    72    1
    80    35    73    1
    81    39    74    1
    82    40    75    1
    83    41    76    1
    84    42    77    1
    85    43    78    1
    86    45    79    1
    87    46    80    1
    88    47    81    1
    89    48    82    1
    90    49    83    1
    91    50    84    1
    92    51    85    1
