@<TRIPOS>MOLECULE
*****
 88 96 0 0 0
SMALL
GASTEIGER

@<TRIPOS>ATOM
      1 C          -3.0227    9.8053    0.1035 C.2     1  UNL1       -0.0470
      2 C          -3.2873    8.4910    0.2114 C.2     1  UNL1       -0.0469
      3 C          -2.3669    7.4506    0.5334 C.ar    1  UNL1        0.0128
      4 C          -1.2621    7.4256    1.3652 C.ar    1  UNL1       -0.0469
      5 C          -0.6049    6.1598    1.3915 C.ar    1  UNL1       -0.0464
      6 C          -1.2382    5.2088    0.6115 C.ar    1  UNL1        0.0199
      7 C          -0.8841    3.7878    0.4142 C.ar    1  UNL1       -0.0112
      8 C          -1.2619    3.0732   -0.7329 C.ar    1  UNL1       -0.0518
      9 C          -0.9374    1.7191   -0.8851 C.ar    1  UNL1       -0.0394
     10 C          -0.2075    1.0377    0.1003 C.ar    1  UNL1        0.0388
     11 N           0.1028   -0.3601   -0.0445 N.pl3   1  UNL1       -0.2692
     12 C           1.4467   -0.8329    0.1893 C.ar    1  UNL1        0.0388
     13 C           2.5626   -0.0549   -0.1655 C.ar    1  UNL1       -0.0394
     14 C           3.8681   -0.5301    0.0176 C.ar    1  UNL1       -0.0518
     15 C           4.0974   -1.7956    0.5702 C.ar    1  UNL1       -0.0112
     16 C           5.4527   -2.3444    0.7027 C.ar    1  UNL1        0.0199
     17 C           5.9097   -3.5998    0.3489 C.ar    1  UNL1       -0.0464
     18 C           7.2986   -3.7735    0.6209 C.ar    1  UNL1       -0.0469
     19 C           7.8801   -2.6472    1.1695 C.ar    1  UNL1        0.0128
     20 C           9.2315   -2.4612    1.5731 C.2     1  UNL1       -0.0469
     21 C          10.1422   -1.7134    0.9276 C.2     1  UNL1       -0.0470
     22 C           9.9482   -0.9776   -0.2785 C.ar    1  UNL1        0.0122
     23 C          10.3189    0.3353   -0.5242 C.ar    1  UNL1       -0.0475
     24 C          10.0156    0.7669   -1.8475 C.ar    1  UNL1       -0.0542
     25 C           9.4264   -0.2312   -2.5887 C.ar    1  UNL1       -0.0238
     26 S           9.3006   -1.6848   -1.7066 S.2     1  UNL1       -0.0973
     27 S           6.7122   -1.4091    1.3994 S.2     1  UNL1       -0.0888
     28 C           2.9899   -2.5657    0.9491 C.ar    1  UNL1       -0.0518
     29 C           1.6846   -2.0912    0.7665 C.ar    1  UNL1       -0.0394
     30 C          -0.9457   -1.2774   -0.4202 C.ar    1  UNL1        0.0388
     31 C          -0.7101   -2.3249   -1.3248 C.ar    1  UNL1       -0.0394
     32 C          -1.7288   -3.2219   -1.6677 C.ar    1  UNL1       -0.0518
     33 C          -3.0119   -3.0991   -1.1197 C.ar    1  UNL1       -0.0112
     34 C          -4.0624   -4.0637   -1.4708 C.ar    1  UNL1        0.0199
     35 C          -4.3669   -4.6019   -2.7038 C.ar    1  UNL1       -0.0464
     36 C          -5.4526   -5.5245   -2.6409 C.ar    1  UNL1       -0.0469
     37 C          -5.9671   -5.6902   -1.3639 C.ar    1  UNL1        0.0128
     38 C          -7.0612   -6.5385   -0.9920 C.2     1  UNL1       -0.0469
     39 C          -7.5360   -6.6554    0.2602 C.2     1  UNL1       -0.0470
     40 C          -8.6341   -7.5074    0.5936 C.ar    1  UNL1        0.0122
     41 C          -9.4404   -8.3213   -0.1874 C.ar    1  UNL1       -0.0475
     42 C         -10.4350   -9.0193    0.5599 C.ar    1  UNL1       -0.0542
     43 C         -10.3754   -8.7160    1.8990 C.ar    1  UNL1       -0.0238
     44 S          -9.1306   -7.6016    2.2478 S.2     1  UNL1       -0.0973
     45 S          -5.0793   -4.7165   -0.2564 S.2     1  UNL1       -0.0888
     46 C          -3.2561   -2.0395   -0.2374 C.ar    1  UNL1       -0.0518
     47 C          -2.2387   -1.1433    0.1096 C.ar    1  UNL1       -0.0394
     48 C           0.1886    1.7502    1.2403 C.ar    1  UNL1       -0.0394
     49 C          -0.1503    3.1004    1.3955 C.ar    1  UNL1       -0.0518
     50 S          -2.6310    5.8870   -0.1360 S.2     1  UNL1       -0.0888
     51 C          -1.7508   10.4334    0.2127 C.ar    1  UNL1        0.0122
     52 C          -0.5292   10.1164   -0.3599 C.ar    1  UNL1       -0.0475
     53 C           0.5089   11.0205    0.0100 C.ar    1  UNL1       -0.0542
     54 C           0.0487   12.0240    0.8310 C.ar    1  UNL1       -0.0238
     55 S          -1.6227   11.8777    1.1455 S.2     1  UNL1       -0.0973
     56 H          -3.8645   10.4636   -0.1035 H       1  UNL1        0.0629
     57 H          -4.3196    8.1869    0.0410 H       1  UNL1        0.0629
     58 H          -0.9252    8.2865    1.9289 H       1  UNL1        0.0629
     59 H           0.2913    5.9646    1.9707 H       1  UNL1        0.0629
     60 H          -1.8180    3.5511   -1.5339 H       1  UNL1        0.0624
     61 H          -1.2490    1.2018   -1.7888 H       1  UNL1        0.0636
     62 H           2.4254    0.9194   -0.6282 H       1  UNL1        0.0636
     63 H           4.6996    0.0915   -0.3034 H       1  UNL1        0.0624
     64 H           5.2809   -4.3605   -0.0991 H       1  UNL1        0.0629
     65 H           7.8524   -4.6799    0.4073 H       1  UNL1        0.0629
     66 H           9.5393   -2.9733    2.4814 H       1  UNL1        0.0629
     67 H          11.1258   -1.6224    1.3844 H       1  UNL1        0.0629
     68 H          10.7864    0.9634    0.2265 H       1  UNL1        0.0629
     69 H          10.2121    1.7614   -2.2347 H       1  UNL1        0.0623
     70 H           9.0888   -0.1886   -3.6153 H       1  UNL1        0.0693
     71 H           3.1293   -3.5497    1.3905 H       1  UNL1        0.0624
     72 H           0.8537   -2.7097    1.0937 H       1  UNL1        0.0636
     73 H           0.2682   -2.4461   -1.7814 H       1  UNL1        0.0636
     74 H          -1.5044   -4.0340   -2.3552 H       1  UNL1        0.0624
     75 H          -3.8446   -4.3382   -3.6162 H       1  UNL1        0.0629
     76 H          -5.8441   -6.0446   -3.5067 H       1  UNL1        0.0629
     77 H          -7.5182   -7.0980   -1.8039 H       1  UNL1        0.0629
     78 H          -7.0850   -6.1001    1.0799 H       1  UNL1        0.0629
     79 H          -9.3292   -8.4241   -1.2590 H       1  UNL1        0.0629
     80 H         -11.1566   -9.7038    0.1301 H       1  UNL1        0.0623
     81 H         -11.0033   -9.0957    2.6930 H       1  UNL1        0.0693
     82 H          -4.2417   -1.8962    0.1991 H       1  UNL1        0.0624
     83 H          -2.4569   -0.3526    0.8223 H       1  UNL1        0.0636
     84 H           0.7408    1.2483    2.0316 H       1  UNL1        0.0636
     85 H           0.1534    3.5996    2.3127 H       1  UNL1        0.0624
     86 H          -0.3864    9.2630   -1.0156 H       1  UNL1        0.0629
     87 H           1.5392   10.9401   -0.3145 H       1  UNL1        0.0623
     88 H           0.6144   12.8407    1.2592 H       1  UNL1        0.0693
@<TRIPOS>BOND
     1     1     2    2
     2     2     3    1
     3     3     4   ar
     4     4     5   ar
     5     5     6   ar
     6     6     7    1
     7     7     8   ar
     8     8     9   ar
     9     9    10   ar
    10    10    11    1
    11    11    12    1
    12    12    13   ar
    13    13    14   ar
    14    14    15   ar
    15    15    16    1
    16    16    17   ar
    17    17    18   ar
    18    18    19   ar
    19    19    20    1
    20    20    21    2
    21    21    22    1
    22    22    23   ar
    23    23    24   ar
    24    24    25   ar
    25    25    26   ar
    26    19    27   ar
    27    15    28   ar
    28    28    29   ar
    29    11    30    1
    30    30    31   ar
    31    31    32   ar
    32    32    33   ar
    33    33    34    1
    34    34    35   ar
    35    35    36   ar
    36    36    37   ar
    37    37    38    1
    38    38    39    2
    39    39    40    1
    40    40    41   ar
    41    41    42   ar
    42    42    43   ar
    43    43    44   ar
    44    37    45   ar
    45    33    46   ar
    46    46    47   ar
    47    10    48   ar
    48    48    49   ar
    49     6    50   ar
    50     1    51    1
    51    51    52   ar
    52    52    53   ar
    53    53    54   ar
    54    54    55   ar
    55    50     3   ar
    56    55    51   ar
    57    49     7   ar
    58    29    12   ar
    59    47    30   ar
    60    27    16   ar
    61    45    34   ar
    62    26    22   ar
    63    44    40   ar
    64     1    56    1
    65     2    57    1
    66     4    58    1
    67     5    59    1
    68     8    60    1
    69     9    61    1
    70    13    62    1
    71    14    63    1
    72    17    64    1
    73    18    65    1
    74    20    66    1
    75    21    67    1
    76    23    68    1
    77    24    69    1
    78    25    70    1
    79    28    71    1
    80    29    72    1
    81    31    73    1
    82    32    74    1
    83    35    75    1
    84    36    76    1
    85    38    77    1
    86    39    78    1
    87    41    79    1
    88    42    80    1
    89    43    81    1
    90    46    82    1
    91    47    83    1
    92    48    84    1
    93    49    85    1
    94    52    86    1
    95    53    87    1
    96    54    88    1
