@<TRIPOS>MOLECULE
*****
 38 41 0 0 0
SMALL
GASTEIGER

@<TRIPOS>ATOM
      1 C           2.0560    0.7416   -1.8566 C.2     1  UNL1        0.0451
      2 N           1.0898   -0.0189   -2.2863 N.2     1  UNL1       -0.2194
      3 C           0.5842   -0.9692   -1.4727 C.ar    1  UNL1        0.2319
      4 N           1.1928   -2.0167   -0.9560 N.ar    1  UNL1       -0.2106
      5 C           0.2366   -2.7115   -0.2632 C.ar    1  UNL1        0.0912
      6 C           0.3598   -3.8987    0.4736 C.ar    1  UNL1       -0.0342
      7 C          -0.7754   -4.4247    1.1008 C.ar    1  UNL1       -0.0596
      8 C          -2.0095   -3.7816    0.9956 C.ar    1  UNL1       -0.0597
      9 C          -2.1515   -2.5960    0.2647 C.ar    1  UNL1       -0.0360
     10 C          -1.0022   -2.0856   -0.3528 C.ar    1  UNL1        0.0706
     11 N          -0.7531   -0.9748   -1.1268 N.ar    1  UNL1       -0.3039
     12 C          -1.7241    0.0250   -1.5371 C.3     1  UNL1        0.0517
     13 C          -1.5966    1.2947   -0.7287 C.ar    1  UNL1       -0.0276
     14 C          -1.9298    1.3202    0.6341 C.ar    1  UNL1       -0.0569
     15 C          -1.7891    2.4936    1.3767 C.ar    1  UNL1       -0.0614
     16 C          -1.3179    3.6540    0.7667 C.ar    1  UNL1       -0.0617
     17 C          -0.9884    3.6440   -0.5867 C.ar    1  UNL1       -0.0614
     18 C          -1.1284    2.4720   -1.3313 C.ar    1  UNL1       -0.0569
     19 C           2.6585    0.8842   -0.5447 C.ar    1  UNL1        0.0303
     20 C           2.2298    0.5189    0.7170 C.ar    1  UNL1       -0.0461
     21 C           3.1529    0.8829    1.7420 C.ar    1  UNL1       -0.0541
     22 C           4.2548    1.5311    1.2361 C.ar    1  UNL1       -0.0237
     23 S           4.1684    1.7056   -0.4602 S.2     1  UNL1       -0.0957
     24 H           2.4654    1.4153   -2.6314 H       1  UNL1        0.0842
     25 H           1.3223   -4.3928    0.5471 H       1  UNL1        0.0639
     26 H          -0.6916   -5.3455    1.6730 H       1  UNL1        0.0618
     27 H          -2.8788   -4.2111    1.4897 H       1  UNL1        0.0618
     28 H          -3.1155   -2.1051    0.1883 H       1  UNL1        0.0639
     29 H          -2.7321   -0.3888   -1.4257 H       1  UNL1        0.0542
     30 H          -1.5795    0.2091   -2.6082 H       1  UNL1        0.0542
     31 H          -2.2924    0.4239    1.1326 H       1  UNL1        0.0621
     32 H          -2.0435    2.5012    2.4335 H       1  UNL1        0.0618
     33 H          -1.2054    4.5661    1.3470 H       1  UNL1        0.0618
     34 H          -0.6185    4.5490   -1.0618 H       1  UNL1        0.0618
     35 H          -0.8579    2.4811   -2.3855 H       1  UNL1        0.0621
     36 H           1.2950    0.0134    0.9196 H       1  UNL1        0.0629
     37 H           3.0094    0.6784    2.7958 H       1  UNL1        0.0623
     38 H           5.1055    1.9156    1.7816 H       1  UNL1        0.0693
@<TRIPOS>BOND
     1     1     2    2
     2     2     3    1
     3     3     4   ar
     4     4     5   ar
     5     5     6   ar
     6     6     7   ar
     7     7     8   ar
     8     8     9   ar
     9     9    10   ar
    10    10    11   ar
    11    11    12    1
    12    12    13    1
    13    13    14   ar
    14    14    15   ar
    15    15    16   ar
    16    16    17   ar
    17    17    18   ar
    18     1    19    1
    19    19    20   ar
    20    20    21   ar
    21    21    22   ar
    22    22    23   ar
    23    11     3   ar
    24    18    13   ar
    25    23    19   ar
    26    10     5   ar
    27     1    24    1
    28     6    25    1
    29     7    26    1
    30     8    27    1
    31     9    28    1
    32    12    29    1
    33    12    30    1
    34    14    31    1
    35    15    32    1
    36    16    33    1
    37    17    34    1
    38    18    35    1
    39    20    36    1
    40    21    37    1
    41    22    38    1
