@<TRIPOS>MOLECULE
*****
 69 79 0 0 0
SMALL
GASTEIGER

@<TRIPOS>ATOM
      1 C          -0.1725    4.4509    2.4509 C.3     1  UNL1        0.0000
      2 SI         -0.1570    3.8088    0.7216 Si      1  UNL1        0.0000
      3 C          -0.2541    5.1150   -0.5732 C.3     1  UNL1        0.0000
      4 C           1.2422    2.5325    0.4133 C.ar    1  UNL1        0.0000
      5 C           2.6396    2.5607    0.3807 C.ar    1  UNL1        0.0000
      6 C           3.1500    1.2836    0.1463 C.ar    1  UNL1        0.0000
      7 C           4.5446    0.8281    0.0740 C.ar    1  UNL1        0.0000
      8 C           4.9824   -0.3200   -0.5988 C.ar    1  UNL1        0.0000
      9 N           6.2584   -0.8182   -0.6889 N.ar    1  UNL1        0.0000
     10 C           7.3105   -0.1753   -0.0959 C.ar    1  UNL1        0.0000
     11 C           8.6151   -0.8151   -0.2142 C.ar    1  UNL1        0.0000
     12 C           8.8819   -2.1705   -0.2635 C.ar    1  UNL1        0.0000
     13 C          10.2775   -2.4812   -0.3673 C.ar    1  UNL1        0.0000
     14 C          10.9432   -3.7288   -0.4085 C.ar    1  UNL1        0.0000
     15 C          12.3373   -3.7850   -0.5024 C.ar    1  UNL1        0.0000
     16 C          13.0823   -2.6154   -0.5627 C.ar    1  UNL1        0.0000
     17 C          12.4508   -1.3699   -0.5377 C.ar    1  UNL1        0.0000
     18 C          11.0464   -1.3194   -0.4350 C.ar    1  UNL1        0.0000
     19 S          10.0585    0.0864   -0.3814 S.2     1  UNL1        0.0000
     20 C           7.0392    1.0093    0.6372 C.ar    1  UNL1        0.0000
     21 N           7.9012    1.7785    1.3301 N.ar    1  UNL1        0.0000
     22 S           7.0369    3.0236    1.9850 S.2     1  UNL1        0.0000
     23 N           5.5185    2.6492    1.4516 N.ar    1  UNL1        0.0000
     24 C           5.6091    1.5232    0.7160 C.ar    1  UNL1        0.0000
     25 S           1.8556    0.1264   -0.0601 S.2     1  UNL1        0.0000
     26 C           0.6787    1.2985    0.1805 C.ar    1  UNL1        0.0000
     27 C          -0.7514    1.2281    0.1892 C.ar    1  UNL1        0.0000
     28 S          -1.8150   -0.0431   -0.0833 S.2     1  UNL1        0.0000
     29 C          -3.2043    0.9880    0.1396 C.ar    1  UNL1        0.0000
     30 C          -4.5500    0.4308   -0.0085 C.ar    1  UNL1        0.0000
     31 C          -4.9276   -0.8704    0.3497 C.ar    1  UNL1        0.0000
     32 N          -6.1670   -1.4505    0.2388 N.ar    1  UNL1        0.0000
     33 C          -7.2320   -0.7447   -0.2523 C.ar    1  UNL1        0.0000
     34 C          -8.5049   -1.4469   -0.3343 C.ar    1  UNL1        0.0000
     35 C          -8.7232   -2.7639   -0.6902 C.ar    1  UNL1        0.0000
     36 C         -10.1046   -3.1487   -0.6548 C.ar    1  UNL1        0.0000
     37 C         -10.7274   -4.3806   -0.9666 C.ar    1  UNL1        0.0000
     38 C         -12.1140   -4.5215   -0.8538 C.ar    1  UNL1        0.0000
     39 C         -12.8945   -3.4527   -0.4359 C.ar    1  UNL1        0.0000
     40 C         -12.3065   -2.2266   -0.1178 C.ar    1  UNL1        0.0000
     41 C         -10.9095   -2.0910   -0.2319 C.ar    1  UNL1        0.0000
     42 S          -9.9740   -0.6877    0.1045 S.2     1  UNL1        0.0000
     43 C          -7.0101    0.5883   -0.6863 C.ar    1  UNL1        0.0000
     44 N          -7.8881    1.4407   -1.2482 N.ar    1  UNL1        0.0000
     45 S          -7.0797    2.8469   -1.5566 S.2     1  UNL1        0.0000
     46 N          -5.5720    2.4586   -1.0047 N.ar    1  UNL1        0.0000
     47 C          -5.6224    1.1902   -0.5512 C.ar    1  UNL1        0.0000
     48 C          -2.8207    2.2946    0.4352 C.ar    1  UNL1        0.0000
     49 C          -1.4278    2.3986    0.4482 C.ar    1  UNL1        0.0000
     50 H           0.5991    5.2121    2.5996 H       1  UNL1        0.0000
     51 H           0.0104    3.6518    3.1744 H       1  UNL1        0.0000
     52 H          -1.1371    4.9040    2.6953 H       1  UNL1        0.0000
     53 H           0.5416    5.8543   -0.4490 H       1  UNL1        0.0000
     54 H          -0.1571    4.6919   -1.5751 H       1  UNL1        0.0000
     55 H          -1.2072    5.6472   -0.5274 H       1  UNL1        0.0000
     56 H           3.2517    3.4413    0.5351 H       1  UNL1        0.0000
     57 H           4.2668   -0.9391   -1.1408 H       1  UNL1        0.0000
     58 H           8.1005   -2.9202   -0.2089 H       1  UNL1        0.0000
     59 H          10.3686   -4.6502   -0.3578 H       1  UNL1        0.0000
     60 H          12.8361   -4.7507   -0.5235 H       1  UNL1        0.0000
     61 H          14.1656   -2.6659   -0.6357 H       1  UNL1        0.0000
     62 H          13.0357   -0.4552   -0.5911 H       1  UNL1        0.0000
     63 H          -4.1938   -1.5500    0.7880 H       1  UNL1        0.0000
     64 H          -7.9183   -3.4311   -0.9772 H       1  UNL1        0.0000
     65 H         -10.1246   -5.2239   -1.2941 H       1  UNL1        0.0000
     66 H         -12.5805   -5.4723   -1.0991 H       1  UNL1        0.0000
     67 H         -13.9719   -3.5697   -0.3507 H       1  UNL1        0.0000
     68 H         -12.9166   -1.3903    0.2099 H       1  UNL1        0.0000
     69 H          -3.5188    3.1036    0.6157 H       1  UNL1        0.0000
@<TRIPOS>BOND
     1     1     2    1
     2     2     3    1
     3     2     4    1
     4     4     5   ar
     5     5     6   ar
     6     6     7    1
     7     7     8   ar
     8     8     9   ar
     9     9    10   ar
    10    10    11    1
    11    11    12   ar
    12    12    13   ar
    13    13    14   ar
    14    14    15   ar
    15    15    16   ar
    16    16    17   ar
    17    17    18   ar
    18    18    19   ar
    19    10    20   ar
    20    20    21   ar
    21    21    22   ar
    22    22    23   ar
    23    23    24   ar
    24     6    25   ar
    25    25    26   ar
    26    26    27    1
    27    27    28   ar
    28    28    29   ar
    29    29    30    1
    30    30    31   ar
    31    31    32   ar
    32    32    33   ar
    33    33    34    1
    34    34    35   ar
    35    35    36   ar
    36    36    37   ar
    37    37    38   ar
    38    38    39   ar
    39    39    40   ar
    40    40    41   ar
    41    41    42   ar
    42    33    43   ar
    43    43    44   ar
    44    44    45   ar
    45    45    46   ar
    46    46    47   ar
    47    29    48   ar
    48    48    49   ar
    49    49     2    1
    50    26     4   ar
    51    49    27   ar
    52    24     7   ar
    53    47    30   ar
    54    19    11   ar
    55    24    20   ar
    56    42    34   ar
    57    47    43   ar
    58    18    13   ar
    59    41    36   ar
    60     1    50    1
    61     1    51    1
    62     1    52    1
    63     3    53    1
    64     3    54    1
    65     3    55    1
    66     5    56    1
    67     8    57    1
    68    12    58    1
    69    14    59    1
    70    15    60    1
    71    16    61    1
    72    17    62    1
    73    31    63    1
    74    35    64    1
    75    37    65    1
    76    38    66    1
    77    39    67    1
    78    40    68    1
    79    48    69    1
