@<TRIPOS>MOLECULE
*****
 57 65 0 0 0
SMALL
GASTEIGER

@<TRIPOS>ATOM
      1 C          -0.2898    4.2251    1.1749 C.3     1  UNL1        0.0000
      2 SI         -0.1614    3.0611   -0.2495 Si      1  UNL1        0.0000
      3 C          -0.1236    3.8840   -1.8987 C.3     1  UNL1        0.0000
      4 C          -1.4287    1.6263   -0.1560 C.ar    1  UNL1        0.0000
      5 C          -2.8195    1.5070   -0.2261 C.ar    1  UNL1        0.0000
      6 C          -3.1916    0.1721   -0.0888 C.ar    1  UNL1        0.0000
      7 C          -4.5268   -0.4179   -0.1018 C.ar    1  UNL1        0.0000
      8 C          -4.9644   -1.4189    0.7695 C.ar    1  UNL1        0.0000
      9 N          -6.2017   -2.0070    0.8172 N.ar    1  UNL1        0.0000
     10 C          -7.2013   -1.6305   -0.0432 C.ar    1  UNL1        0.0000
     11 C          -8.4751   -2.3288    0.1013 C.ar    1  UNL1        0.0000
     12 C          -8.6789   -3.6202    0.5631 C.ar    1  UNL1        0.0000
     13 C         -10.0542   -3.9887    0.6067 C.ar    1  UNL1        0.0000
     14 C         -10.8699   -2.9610    0.1950 C.ar    1  UNL1        0.0000
     15 S          -9.9782   -1.5671   -0.2276 S.2     1  UNL1        0.0000
     16 C          -6.9054   -0.6327   -1.0102 C.ar    1  UNL1        0.0000
     17 N          -7.7001   -0.1391   -1.9786 N.ar    1  UNL1        0.0000
     18 S          -6.8269    0.9919   -2.8065 S.2     1  UNL1        0.0000
     19 N          -5.3907    0.9263   -1.9901 N.ar    1  UNL1        0.0000
     20 C          -5.5210   -0.0062   -1.0266 C.ar    1  UNL1        0.0000
     21 S          -1.8051   -0.8636    0.1070 S.2     1  UNL1        0.0000
     22 C          -0.7490    0.4402    0.0157 C.ar    1  UNL1        0.0000
     23 C           0.6793    0.5161    0.0799 C.ar    1  UNL1        0.0000
     24 S           1.8556   -0.6718    0.2582 S.2     1  UNL1        0.0000
     25 C           3.1282    0.5088    0.2016 C.ar    1  UNL1        0.0000
     26 C           4.5128    0.0709    0.2709 C.ar    1  UNL1        0.0000
     27 C           5.4447    0.3219   -0.7361 C.ar    1  UNL1        0.0000
     28 N           6.7646   -0.0424   -0.7591 N.ar    1  UNL1        0.0000
     29 C           7.3229   -0.7558    0.2741 C.ar    1  UNL1        0.0000
     30 C           8.7358   -1.0953    0.1345 C.ar    1  UNL1        0.0000
     31 C           9.7054   -0.3932   -0.5639 C.ar    1  UNL1        0.0000
     32 C          10.9865   -1.0159   -0.5234 C.ar    1  UNL1        0.0000
     33 C          10.9588   -2.1911    0.1899 C.ar    1  UNL1        0.0000
     34 S           9.3991   -2.5351    0.7934 S.2     1  UNL1        0.0000
     35 C           6.5039   -1.0570    1.3966 C.ar    1  UNL1        0.0000
     36 N           6.8407   -1.6834    2.5391 N.ar    1  UNL1        0.0000
     37 S           5.4879   -1.7416    3.4867 S.2     1  UNL1        0.0000
     38 N           4.4030   -0.9565    2.5173 N.ar    1  UNL1        0.0000
     39 C           5.0487   -0.6227    1.3852 C.ar    1  UNL1        0.0000
     40 C           2.6391    1.7991    0.0278 C.ar    1  UNL1        0.0000
     41 C           1.2426    1.7694   -0.0327 C.ar    1  UNL1        0.0000
     42 H          -0.3116    3.6891    2.1290 H       1  UNL1        0.0000
     43 H           0.5607    4.9132    1.2011 H       1  UNL1        0.0000
     44 H          -1.2021    4.8277    1.1125 H       1  UNL1        0.0000
     45 H           0.7364    4.5555   -1.9863 H       1  UNL1        0.0000
     46 H          -0.0559    3.1530   -2.7099 H       1  UNL1        0.0000
     47 H          -1.0271    4.4793   -2.0633 H       1  UNL1        0.0000
     48 H          -3.5250    2.3181   -0.3654 H       1  UNL1        0.0000
     49 H          -4.2882   -1.8066    1.5316 H       1  UNL1        0.0000
     50 H          -7.8644   -4.2733    0.8562 H       1  UNL1        0.0000
     51 H         -10.4232   -4.9543    0.9295 H       1  UNL1        0.0000
     52 H         -11.9491   -2.9563    0.1301 H       1  UNL1        0.0000
     53 H           5.1349    0.8597   -1.6330 H       1  UNL1        0.0000
     54 H           9.4965    0.5349   -1.0832 H       1  UNL1        0.0000
     55 H          11.8775   -0.6251   -0.9992 H       1  UNL1        0.0000
     56 H          11.7781   -2.8711    0.3801 H       1  UNL1        0.0000
     57 H           3.2663    2.6799   -0.0427 H       1  UNL1        0.0000
@<TRIPOS>BOND
     1     1     2    1
     2     2     3    1
     3     2     4    1
     4     4     5   ar
     5     5     6   ar
     6     6     7    1
     7     7     8   ar
     8     8     9   ar
     9     9    10   ar
    10    10    11    1
    11    11    12   ar
    12    12    13   ar
    13    13    14   ar
    14    14    15   ar
    15    10    16   ar
    16    16    17   ar
    17    17    18   ar
    18    18    19   ar
    19    19    20   ar
    20     6    21   ar
    21    21    22   ar
    22    22    23    1
    23    23    24   ar
    24    24    25   ar
    25    25    26    1
    26    26    27   ar
    27    27    28   ar
    28    28    29   ar
    29    29    30    1
    30    30    31   ar
    31    31    32   ar
    32    32    33   ar
    33    33    34   ar
    34    29    35   ar
    35    35    36   ar
    36    36    37   ar
    37    37    38   ar
    38    38    39   ar
    39    25    40   ar
    40    40    41   ar
    41    41     2    1
    42    22     4   ar
    43    41    23   ar
    44    20     7   ar
    45    39    26   ar
    46    15    11   ar
    47    20    16   ar
    48    34    30   ar
    49    39    35   ar
    50     1    42    1
    51     1    43    1
    52     1    44    1
    53     3    45    1
    54     3    46    1
    55     3    47    1
    56     5    48    1
    57     8    49    1
    58    12    50    1
    59    13    51    1
    60    14    52    1
    61    27    53    1
    62    31    54    1
    63    32    55    1
    64    33    56    1
    65    40    57    1
