@<TRIPOS>MOLECULE
*****
 34 38 0 0 0
SMALL
GASTEIGER

@<TRIPOS>ATOM
      1 C          -3.2954   -1.4703    1.3933 C.3     1  UNL1        0.0000
      2 SI         -2.7097    0.0594    0.5452 Si      1  UNL1        0.0000
      3 C          -3.1213    1.6223    1.4333 C.3     1  UNL1        0.0000
      4 C          -3.1890    0.1099   -1.3132 C.ar    1  UNL1        0.0000
      5 C          -4.3786    0.1854   -2.0432 C.ar    1  UNL1        0.0000
      6 C          -4.0820    0.1874   -3.3968 C.ar    1  UNL1        0.0000
      7 S          -2.3811    0.0978   -3.7180 S.2     1  UNL1        0.0000
      8 C          -2.0361    0.0569   -2.0705 C.ar    1  UNL1        0.0000
      9 C          -0.7964   -0.0210   -1.3575 C.ar    1  UNL1        0.0000
     10 S           0.7966   -0.0940   -1.8860 S.2     1  UNL1        0.0000
     11 C           1.4000   -0.1557   -0.2517 C.ar    1  UNL1        0.0000
     12 C           2.8427   -0.2252   -0.0186 C.ar    1  UNL1        0.0000
     13 C           3.7511   -0.9621   -0.8179 C.ar    1  UNL1        0.0000
     14 C           5.1483   -1.0193   -0.5704 C.ar    1  UNL1        0.0000
     15 C           5.7639   -0.3477    0.4990 C.ar    1  UNL1        0.0000
     16 C           4.8853    0.3898    1.3136 C.ar    1  UNL1        0.0000
     17 N           5.1677    1.1236    2.3962 N.ar    1  UNL1        0.0000
     18 O           3.9606    1.6440    2.8235 O.2     1  UNL1        0.0000
     19 N           2.9119    1.2387    2.0209 N.ar    1  UNL1        0.0000
     20 C           3.4454    0.4563    1.0688 C.ar    1  UNL1        0.0000
     21 C           0.3612   -0.1146    0.6755 C.ar    1  UNL1        0.0000
     22 C          -0.8696   -0.0387    0.0177 C.ar    1  UNL1        0.0000
     23 H          -3.0288   -2.3687    0.8278 H       1  UNL1        0.0000
     24 H          -4.3833   -1.4647    1.5124 H       1  UNL1        0.0000
     25 H          -2.8535   -1.5635    2.3903 H       1  UNL1        0.0000
     26 H          -2.7547    2.4995    0.8909 H       1  UNL1        0.0000
     27 H          -4.2031    1.7359    1.5537 H       1  UNL1        0.0000
     28 H          -2.6733    1.6396    2.4317 H       1  UNL1        0.0000
     29 H          -5.3852    0.2361   -1.6475 H       1  UNL1        0.0000
     30 H          -4.7730    0.2371   -4.2270 H       1  UNL1        0.0000
     31 H           3.3710   -1.5300   -1.6687 H       1  UNL1        0.0000
     32 H           5.7698   -1.6136   -1.2414 H       1  UNL1        0.0000
     33 H           6.8291   -0.3926    0.6858 H       1  UNL1        0.0000
     34 H           0.5093   -0.1380    1.7488 H       1  UNL1        0.0000
@<TRIPOS>BOND
     1     1     2    1
     2     2     3    1
     3     2     4    1
     4     4     5   ar
     5     5     6   ar
     6     6     7   ar
     7     7     8   ar
     8     8     9    1
     9     9    10   ar
    10    10    11   ar
    11    11    12    1
    12    12    13   ar
    13    13    14   ar
    14    14    15   ar
    15    15    16   ar
    16    16    17   ar
    17    17    18   ar
    18    18    19   ar
    19    19    20   ar
    20    11    21   ar
    21    21    22   ar
    22    22     2    1
    23     8     4   ar
    24    22     9   ar
    25    20    12   ar
    26    20    16   ar
    27     1    23    1
    28     1    24    1
    29     1    25    1
    30     3    26    1
    31     3    27    1
    32     3    28    1
    33     5    29    1
    34     6    30    1
    35    13    31    1
    36    14    32    1
    37    15    33    1
    38    21    34    1
