@<TRIPOS>MOLECULE
*****
 34 38 0 0 0
SMALL
GASTEIGER

@<TRIPOS>ATOM
      1 C          -3.1747   -1.8871    1.3657 C.3     1  UNL1        0.0000
      2 SI         -2.6408   -0.1752    0.9334 Si      1  UNL1        0.0000
      3 C          -2.9324    1.0644    2.2679 C.3     1  UNL1        0.0000
      4 C          -3.3053    0.4000   -0.7727 C.ar    1  UNL1        0.0000
      5 C          -4.5612    0.6681   -1.3232 C.ar    1  UNL1        0.0000
      6 C          -4.4026    1.0671   -2.6403 C.ar    1  UNL1        0.0000
      7 S          -2.7453    1.0878   -3.1469 S.2     1  UNL1        0.0000
      8 C          -2.2365    0.5757   -1.6281 C.ar    1  UNL1        0.0000
      9 C          -0.9328    0.3109   -1.0972 C.ar    1  UNL1        0.0000
     10 S           0.5973    0.4153   -1.7851 S.2     1  UNL1        0.0000
     11 C           1.3602   -0.0868   -0.3010 C.ar    1  UNL1        0.0000
     12 C           2.8192   -0.1830   -0.2445 C.ar    1  UNL1        0.0000
     13 C           3.6010   -0.7789   -1.2609 C.ar    1  UNL1        0.0000
     14 C           5.0130   -0.8628   -1.2199 C.ar    1  UNL1        0.0000
     15 C           5.7767   -0.3627   -0.1506 C.ar    1  UNL1        0.0000
     16 C           5.0550    0.2348    0.9077 C.ar    1  UNL1        0.0000
     17 N           5.5988    0.7660    2.0114 N.ar    1  UNL1        0.0000
     18 S           4.3394    1.3470    2.9227 S.2     1  UNL1        0.0000
     19 N           3.0487    0.9439    1.9656 N.ar    1  UNL1        0.0000
     20 C           3.5428    0.3325    0.8722 C.ar    1  UNL1        0.0000
     21 C           0.4241   -0.3306    0.7016 C.ar    1  UNL1        0.0000
     22 C          -0.8664   -0.0984    0.2160 C.ar    1  UNL1        0.0000
     23 H          -2.6680   -2.2413    2.2686 H       1  UNL1        0.0000
     24 H          -2.9530   -2.5933    0.5617 H       1  UNL1        0.0000
     25 H          -4.2522   -1.9284    1.5524 H       1  UNL1        0.0000
     26 H          -4.0000    1.1692    2.4839 H       1  UNL1        0.0000
     27 H          -2.5510    2.0497    1.9865 H       1  UNL1        0.0000
     28 H          -2.4338    0.7678    3.1946 H       1  UNL1        0.0000
     29 H          -5.5213    0.5890   -0.8313 H       1  UNL1        0.0000
     30 H          -5.1725    1.3478   -3.3457 H       1  UNL1        0.0000
     31 H           3.0996   -1.2055   -2.1310 H       1  UNL1        0.0000
     32 H           5.5296   -1.3302   -2.0568 H       1  UNL1        0.0000
     33 H           6.8577   -0.4286   -0.1313 H       1  UNL1        0.0000
     34 H           0.6867   -0.6446    1.7077 H       1  UNL1        0.0000
@<TRIPOS>BOND
     1     1     2    1
     2     2     3    1
     3     2     4    1
     4     4     5   ar
     5     5     6   ar
     6     6     7   ar
     7     7     8   ar
     8     8     9    1
     9     9    10   ar
    10    10    11   ar
    11    11    12    1
    12    12    13   ar
    13    13    14   ar
    14    14    15   ar
    15    15    16   ar
    16    16    17   ar
    17    17    18   ar
    18    18    19   ar
    19    19    20   ar
    20    11    21   ar
    21    21    22   ar
    22    22     2    1
    23     8     4   ar
    24    22     9   ar
    25    20    12   ar
    26    20    16   ar
    27     1    23    1
    28     1    24    1
    29     1    25    1
    30     3    26    1
    31     3    27    1
    32     3    28    1
    33     5    29    1
    34     6    30    1
    35    13    31    1
    36    14    32    1
    37    15    33    1
    38    21    34    1
