@<TRIPOS>MOLECULE
*****
 45 51 0 0 0
SMALL
GASTEIGER

@<TRIPOS>ATOM
      1 SI          1.9152    0.9398    0.0003 Si      1  UNL1        0.0000
      2 C           0.6182   -0.3592   -0.4670 C.2     1  UNL1        0.0000
      3 C           1.2184   -1.5087   -0.8449 C.2     1  UNL1        0.0000
      4 C           2.6750   -1.5035   -0.8129 C.2     1  UNL1        0.0000
      5 C           3.2352   -0.3518   -0.3937 C.2     1  UNL1        0.0000
      6 C           4.6495   -0.0611   -0.3097 C.ar    1  UNL1        0.0000
      7 C           5.4574    0.2313   -1.4344 C.ar    1  UNL1        0.0000
      8 C           6.8576    0.5229   -1.3574 C.ar    1  UNL1        0.0000
      9 C           7.5941    0.5441   -0.1533 C.ar    1  UNL1        0.0000
     10 C           6.7972    0.2388    0.9505 C.ar    1  UNL1        0.0000
     11 C           7.2992    0.1850    2.2271 C.ar    1  UNL1        0.0000
     12 S           6.0764   -0.2349    3.3591 S.2     1  UNL1        0.0000
     13 C           4.8741   -0.3470    2.1337 C.ar    1  UNL1        0.0000
     14 C           5.3841   -0.0557    0.8892 C.ar    1  UNL1        0.0000
     15 C          -0.7755   -0.1368   -0.4378 C.ar    1  UNL1        0.0000
     16 S          -1.6077    0.8869    0.6946 S.2     1  UNL1        0.0000
     17 C          -3.1888    0.5667    0.0325 C.ar    1  UNL1        0.0000
     18 C          -4.3927    1.1504    0.5648 C.ar    1  UNL1        0.0000
     19 S          -4.4510    2.8138    1.0364 S.2     1  UNL1        0.0000
     20 C          -6.0973    2.7262    1.4994 C.ar    1  UNL1        0.0000
     21 C          -6.6015    1.4681    1.3033 C.ar    1  UNL1        0.0000
     22 N          -7.8892    1.1375    1.5988 N.ar    1  UNL1        0.0000
     23 C          -8.1258   -0.1731    1.3201 C.ar    1  UNL1        0.0000
     24 C          -7.1849   -1.0673    0.7968 C.ar    1  UNL1        0.0000
     25 N          -5.8960   -0.7587    0.4877 N.ar    1  UNL1        0.0000
     26 C          -5.6235    0.5530    0.7596 C.ar    1  UNL1        0.0000
     27 C          -3.0159   -0.2939   -0.9983 C.ar    1  UNL1        0.0000
     28 C          -3.7603   -0.9718   -1.9818 C.ar    1  UNL1        0.0000
     29 C          -2.8176   -1.6899   -2.7245 C.ar    1  UNL1        0.0000
     30 O          -1.5151   -1.5225   -2.2975 O.2     1  UNL1        0.0000
     31 C          -1.7168   -0.6691   -1.2512 C.ar    1  UNL1        0.0000
     32 H           1.8867    1.2832    1.4465 H       1  UNL1        0.0000
     33 H           1.9427    2.0868   -0.9450 H       1  UNL1        0.0000
     34 H           0.6922   -2.4020   -1.1618 H       1  UNL1        0.0000
     35 H           3.2365   -2.3790   -1.1170 H       1  UNL1        0.0000
     36 H           4.9936    0.2415   -2.4218 H       1  UNL1        0.0000
     37 H           7.3839    0.7399   -2.2877 H       1  UNL1        0.0000
     38 H           8.6526    0.7651   -0.1185 H       1  UNL1        0.0000
     39 H           8.3103    0.3611    2.5673 H       1  UNL1        0.0000
     40 H           3.8663   -0.6243    2.4098 H       1  UNL1        0.0000
     41 H          -6.6115    3.5917    1.8912 H       1  UNL1        0.0000
     42 H          -9.1359   -0.5098    1.5366 H       1  UNL1        0.0000
     43 H          -7.4632   -2.1005    0.6077 H       1  UNL1        0.0000
     44 H          -4.8281   -0.9610   -2.1469 H       1  UNL1        0.0000
     45 H          -2.9181   -2.3524   -3.5742 H       1  UNL1        0.0000
@<TRIPOS>BOND
     1     1     2    1
     2     2     3    2
     3     3     4    1
     4     4     5    2
     5     5     6    1
     6     6     7   ar
     7     7     8   ar
     8     8     9   ar
     9     9    10   ar
    10    10    11   ar
    11    11    12   ar
    12    12    13   ar
    13    13    14   ar
    14     2    15    1
    15    15    16   ar
    16    16    17   ar
    17    17    18    1
    18    18    19   ar
    19    19    20   ar
    20    20    21   ar
    21    21    22   ar
    22    22    23   ar
    23    23    24   ar
    24    24    25   ar
    25    25    26   ar
    26    17    27   ar
    27    27    28   ar
    28    28    29   ar
    29    29    30   ar
    30    30    31   ar
    31     5     1    1
    32    14     6   ar
    33    31    15   ar
    34    14    10   ar
    35    26    18   ar
    36    31    27   ar
    37    26    21   ar
    38     1    32    1
    39     1    33    1
    40     3    34    1
    41     4    35    1
    42     7    36    1
    43     8    37    1
    44     9    38    1
    45    11    39    1
    46    13    40    1
    47    20    41    1
    48    23    42    1
    49    24    43    1
    50    28    44    1
    51    29    45    1
