@<TRIPOS>MOLECULE
*****
 24 24 0 0 0
SMALL
GASTEIGER

@<TRIPOS>ATOM
      1 C          -0.8716   -2.1164    2.2093 C.2     1  UNL1       -0.0980
      2 C          -0.8864   -0.8083    1.9203 C.2     1  UNL1       -0.0581
      3 C          -0.3451   -0.2113    0.6829 C.ar    1  UNL1        0.0196
      4 C           0.8554   -0.6986    0.1300 C.ar    1  UNL1       -0.0093
      5 C           1.3960   -0.1289   -1.0228 C.ar    1  UNL1        0.1209
      6 O           2.5466   -0.5170   -1.6521 O.3     1  UNL1       -0.4951
      7 C           3.2529   -1.6131   -1.0845 C.3     1  UNL1        0.0788
      8 C           0.7394    0.9443   -1.6220 C.ar    1  UNL1       -0.0165
      9 C          -0.4428    1.4540   -1.0785 C.ar    1  UNL1       -0.0159
     10 C          -0.9915    0.8878    0.0762 C.ar    1  UNL1        0.1274
     11 O          -2.1444    1.3290    0.6783 O.3     1  UNL1       -0.4945
     12 C          -2.8414    2.4024    0.0603 C.3     1  UNL1        0.0788
     13 H          -1.3077   -2.4753    3.1363 H       1  UNL1        0.0535
     14 H          -0.4569   -2.8590    1.5363 H       1  UNL1        0.0535
     15 H          -1.3513   -0.1133    2.6167 H       1  UNL1        0.0619
     16 H           1.3596   -1.5199    0.6275 H       1  UNL1        0.0661
     17 H           2.6424   -2.5222   -1.0902 H       1  UNL1        0.0660
     18 H           3.6022   -1.3764   -0.0741 H       1  UNL1        0.0660
     19 H           4.1341   -1.8004   -1.7056 H       1  UNL1        0.0660
     20 H           1.1556    1.3946   -2.5202 H       1  UNL1        0.0655
     21 H          -0.9054    2.2953   -1.5827 H       1  UNL1        0.0655
     22 H          -2.2340    3.3134    0.0506 H       1  UNL1        0.0660
     23 H          -3.7359    2.6068    0.6566 H       1  UNL1        0.0660
     24 H          -3.1698    2.1324   -0.9488 H       1  UNL1        0.0660
@<TRIPOS>BOND
     1     1     2    2
     2     2     3    1
     3     3     4   ar
     4     4     5   ar
     5     5     6    1
     6     6     7    1
     7     5     8   ar
     8     8     9   ar
     9     9    10   ar
    10    10    11    1
    11    11    12    1
    12    10     3   ar
    13     1    13    1
    14     1    14    1
    15     2    15    1
    16     4    16    1
    17     7    17    1
    18     7    18    1
    19     7    19    1
    20     8    20    1
    21     9    21    1
    22    12    22    1
    23    12    23    1
    24    12    24    1
