@<TRIPOS>MOLECULE
*****
 53 56 0 0 0
SMALL
GASTEIGER

@<TRIPOS>ATOM
      1 C          -7.3395   -0.8691    3.0109 C.2     1  UNL1       -0.0981
      2 C          -6.7068   -1.5300    2.0328 C.2     1  UNL1       -0.0617
      3 C          -5.5309   -1.0282    1.3094 C.ar    1  UNL1       -0.0255
      4 C          -4.5509   -0.2396    1.9218 C.ar    1  UNL1       -0.0528
      5 C          -3.4295    0.1932    1.2035 C.ar    1  UNL1       -0.0395
      6 C          -3.2523   -0.1580   -0.1446 C.ar    1  UNL1        0.0388
      7 N          -2.0969    0.2885   -0.8853 N.pl3   1  UNL1       -0.2692
      8 C          -2.2407    0.7199   -2.2562 C.ar    1  UNL1        0.0388
      9 C          -3.3410    1.4978   -2.6587 C.ar    1  UNL1       -0.0400
     10 C          -3.4797    1.9160   -3.9849 C.ar    1  UNL1       -0.0600
     11 C          -2.5212    1.5629   -4.9316 C.ar    1  UNL1       -0.0616
     12 C          -1.4239    0.7926   -4.5545 C.ar    1  UNL1       -0.0600
     13 C          -1.2846    0.3749   -3.2282 C.ar    1  UNL1       -0.0400
     14 C          -0.7968    0.3001   -0.2583 C.ar    1  UNL1        0.0388
     15 C          -0.3901   -0.7475    0.5856 C.ar    1  UNL1       -0.0395
     16 C           0.8721   -0.7393    1.1888 C.ar    1  UNL1       -0.0528
     17 C           1.7585    0.3154    0.9564 C.ar    1  UNL1       -0.0237
     18 C           3.0718    0.3082    1.6073 C.2     1  UNL1       -0.0357
     19 C           4.2556    0.2109    0.9876 C.2     1  UNL1        0.0772
     20 S           4.5656    0.0575   -0.6946 S.3     1  UNL1       -0.0610
     21 C           6.3070   -0.0361   -0.4616 C.2     1  UNL1        0.1210
     22 S           7.3657   -0.2371   -1.7350 S.2     1  UNL1       -0.0272
     23 N           6.6041    0.0887    0.8775 N.am    1  UNL1       -0.2445
     24 C           7.9491    0.0021    1.4451 C.3     1  UNL1        0.1180
     25 C           8.3445   -1.4255    1.7868 C.2     1  UNL1        0.3227
     26 O           9.4109   -1.7602    2.2806 O.2     1  UNL1       -0.2492
     27 O           7.4171   -2.3599    1.4939 O.3     1  UNL1       -0.4795
     28 C           5.5341    0.1966    1.7453 C.2     1  UNL1        0.2588
     29 O           5.6059    0.2655    2.9647 O.2     1  UNL1       -0.2690
     30 C           1.3628    1.3704    0.1296 C.ar    1  UNL1       -0.0528
     31 C           0.1007    1.3599   -0.4735 C.ar    1  UNL1       -0.0395
     32 C          -4.2330   -0.9618   -0.7478 C.ar    1  UNL1       -0.0395
     33 C          -5.3530   -1.3958   -0.0288 C.ar    1  UNL1       -0.0528
     34 H          -7.0302    0.1148    3.3475 H       1  UNL1        0.0535
     35 H          -8.2101   -1.3043    3.4918 H       1  UNL1        0.0535
     36 H          -7.0837   -2.5016    1.7206 H       1  UNL1        0.0618
     37 H          -4.6401    0.0446    2.9672 H       1  UNL1        0.0624
     38 H          -2.6988    0.8229    1.7056 H       1  UNL1        0.0636
     39 H          -4.0920    1.8000   -1.9326 H       1  UNL1        0.0636
     40 H          -4.3352    2.5203   -4.2749 H       1  UNL1        0.0618
     41 H          -2.6292    1.8879   -5.9631 H       1  UNL1        0.0618
     42 H          -0.6760    0.5118   -5.2914 H       1  UNL1        0.0618
     43 H          -0.4292   -0.2409   -2.9602 H       1  UNL1        0.0636
     44 H          -1.0505   -1.5931    0.7643 H       1  UNL1        0.0636
     45 H           1.1554   -1.5701    1.8311 H       1  UNL1        0.0624
     46 H           3.0363    0.3679    2.6943 H       1  UNL1        0.0636
     47 H           7.9885    0.5877    2.3696 H       1  UNL1        0.0584
     48 H           8.6817    0.4021    0.7394 H       1  UNL1        0.0584
     49 H           7.8284   -3.2042    1.7787 H       1  UNL1        0.2951
     50 H           2.0264    2.2123   -0.0531 H       1  UNL1        0.0624
     51 H          -0.1861    2.1992   -1.1031 H       1  UNL1        0.0636
     52 H          -4.1226   -1.2744   -1.7837 H       1  UNL1        0.0636
     53 H          -6.0875   -2.0207   -0.5320 H       1  UNL1        0.0624
@<TRIPOS>BOND
     1     1     2    2
     2     2     3    1
     3     3     4   ar
     4     4     5   ar
     5     5     6   ar
     6     6     7    1
     7     7     8    1
     8     8     9   ar
     9     9    10   ar
    10    10    11   ar
    11    11    12   ar
    12    12    13   ar
    13     7    14    1
    14    14    15   ar
    15    15    16   ar
    16    16    17   ar
    17    17    18    1
    18    18    19    2
    19    19    20    1
    20    20    21    1
    21    21    22    2
    22    21    23    1
    23    23    24    1
    24    24    25    1
    25    25    26    2
    26    25    27    1
    27    23    28   am
    28    28    29    2
    29    17    30   ar
    30    30    31   ar
    31     6    32   ar
    32    32    33   ar
    33    33     3   ar
    34    13     8   ar
    35    31    14   ar
    36    28    19    1
    37     1    34    1
    38     1    35    1
    39     2    36    1
    40     4    37    1
    41     5    38    1
    42     9    39    1
    43    10    40    1
    44    11    41    1
    45    12    42    1
    46    13    43    1
    47    15    44    1
    48    16    45    1
    49    18    46    1
    50    24    47    1
    51    24    48    1
    52    27    49    1
    53    30    50    1
    54    31    51    1
    55    32    52    1
    56    33    53    1
