@<TRIPOS>MOLECULE
*****
 60 64 0 0 0
SMALL
GASTEIGER

@<TRIPOS>ATOM
      1 C          -6.0800    5.4782   -0.1521 C.2     1  UNL1       -0.0981
      2 C          -6.6501    4.2665   -0.1708 C.2     1  UNL1       -0.0617
      3 C          -5.9119    2.9964   -0.1809 C.ar    1  UNL1       -0.0255
      4 C          -6.4669    1.8975   -0.8450 C.ar    1  UNL1       -0.0528
      5 C          -5.8091    0.6614   -0.8582 C.ar    1  UNL1       -0.0395
      6 C          -4.5825    0.4865   -0.1975 C.ar    1  UNL1        0.0388
      7 N          -3.9022   -0.7869   -0.2126 N.pl3   1  UNL1       -0.2692
      8 C          -4.6578   -2.0118   -0.0927 C.ar    1  UNL1        0.0388
      9 C          -4.3372   -3.1386   -0.8709 C.ar    1  UNL1       -0.0400
     10 C          -5.0678   -4.3241   -0.7550 C.ar    1  UNL1       -0.0600
     11 C          -6.1308   -4.4034    0.1415 C.ar    1  UNL1       -0.0616
     12 C          -6.4648   -3.2993    0.9223 C.ar    1  UNL1       -0.0600
     13 C          -5.7348   -2.1135    0.8060 C.ar    1  UNL1       -0.0400
     14 C          -2.4659   -0.8372   -0.3442 C.ar    1  UNL1        0.0388
     15 C          -1.7883    0.0204   -1.2256 C.ar    1  UNL1       -0.0394
     16 C          -0.3943   -0.0255   -1.3502 C.ar    1  UNL1       -0.0518
     17 C           0.3640   -0.9279   -0.5935 C.ar    1  UNL1       -0.0112
     18 C           1.8263   -0.9968   -0.7119 C.ar    1  UNL1        0.0199
     19 C           2.6301   -2.1148   -0.8102 C.ar    1  UNL1       -0.0464
     20 C           4.0168   -1.7904   -0.8830 C.ar    1  UNL1       -0.0469
     21 C           4.2580   -0.4303   -0.8155 C.ar    1  UNL1        0.0140
     22 C           5.4733    0.3126   -0.8580 C.2     1  UNL1       -0.0291
     23 C           6.6008   -0.0097   -0.2095 C.2     1  UNL1        0.0777
     24 S           6.9199   -1.3238    0.8499 S.3     1  UNL1       -0.0610
     25 C           8.5584   -0.7831    1.1907 C.2     1  UNL1        0.1210
     26 S           9.5624   -1.5957    2.2459 S.2     1  UNL1       -0.0272
     27 N           8.8325    0.3520    0.4619 N.am    1  UNL1       -0.2445
     28 C          10.0799    1.1120    0.5401 C.3     1  UNL1        0.1180
     29 C          10.0461    2.1688    1.6327 C.2     1  UNL1        0.3227
     30 O          10.9585    2.9378    1.8954 O.2     1  UNL1       -0.2492
     31 O           8.9017    2.2158    2.3445 O.3     1  UNL1       -0.4795
     32 C           7.8052    0.8580   -0.3118 C.2     1  UNL1        0.2588
     33 O           7.8582    1.8754   -0.9902 O.2     1  UNL1       -0.2690
     34 S           2.7706    0.4322   -0.7092 S.2     1  UNL1       -0.0888
     35 C          -0.3079   -1.7911    0.2818 C.ar    1  UNL1       -0.0518
     36 C          -1.7016   -1.7457    0.4056 C.ar    1  UNL1       -0.0394
     37 C          -4.0407    1.5900    0.4813 C.ar    1  UNL1       -0.0395
     38 C          -4.6986    2.8263    0.4938 C.ar    1  UNL1       -0.0528
     39 H          -6.6943    6.3733   -0.1560 H       1  UNL1        0.0535
     40 H          -5.0039    5.6185   -0.1480 H       1  UNL1        0.0535
     41 H          -7.7350    4.1916   -0.2025 H       1  UNL1        0.0618
     42 H          -7.4131    1.9918   -1.3726 H       1  UNL1        0.0624
     43 H          -6.2577   -0.1634   -1.4065 H       1  UNL1        0.0636
     44 H          -3.5228   -3.0922   -1.5902 H       1  UNL1        0.0636
     45 H          -4.8075   -5.1825   -1.3689 H       1  UNL1        0.0618
     46 H          -6.6989   -5.3257    0.2316 H       1  UNL1        0.0618
     47 H          -7.2911   -3.3591    1.6260 H       1  UNL1        0.0618
     48 H          -6.0008   -1.2694    1.4382 H       1  UNL1        0.0636
     49 H          -2.3451    0.7233   -1.8413 H       1  UNL1        0.0636
     50 H           0.0865    0.6470   -2.0571 H       1  UNL1        0.0624
     51 H           2.2433   -3.1259   -0.8423 H       1  UNL1        0.0629
     52 H           4.7967   -2.5350   -0.9854 H       1  UNL1        0.0629
     53 H           5.4572    1.2337   -1.4409 H       1  UNL1        0.0641
     54 H          10.2497    1.6253   -0.4121 H       1  UNL1        0.0584
     55 H          10.9189    0.4398    0.7377 H       1  UNL1        0.0584
     56 H           9.0464    2.9463    2.9847 H       1  UNL1        0.2951
     57 H           0.2478   -2.4990    0.8929 H       1  UNL1        0.0624
     58 H          -2.1863   -2.4144    1.1132 H       1  UNL1        0.0636
     59 H          -3.1064    1.4908    1.0287 H       1  UNL1        0.0636
     60 H          -4.2529    3.6467    1.0500 H       1  UNL1        0.0624
@<TRIPOS>BOND
     1     1     2    2
     2     2     3    1
     3     3     4   ar
     4     4     5   ar
     5     5     6   ar
     6     6     7    1
     7     7     8    1
     8     8     9   ar
     9     9    10   ar
    10    10    11   ar
    11    11    12   ar
    12    12    13   ar
    13     7    14    1
    14    14    15   ar
    15    15    16   ar
    16    16    17   ar
    17    17    18    1
    18    18    19   ar
    19    19    20   ar
    20    20    21   ar
    21    21    22    1
    22    22    23    2
    23    23    24    1
    24    24    25    1
    25    25    26    2
    26    25    27    1
    27    27    28    1
    28    28    29    1
    29    29    30    2
    30    29    31    1
    31    27    32   am
    32    32    33    2
    33    21    34   ar
    34    17    35   ar
    35    35    36   ar
    36     6    37   ar
    37    37    38   ar
    38    38     3   ar
    39    13     8   ar
    40    36    14   ar
    41    34    18   ar
    42    32    23    1
    43     1    39    1
    44     1    40    1
    45     2    41    1
    46     4    42    1
    47     5    43    1
    48     9    44    1
    49    10    45    1
    50    11    46    1
    51    12    47    1
    52    13    48    1
    53    15    49    1
    54    16    50    1
    55    19    51    1
    56    20    52    1
    57    22    53    1
    58    28    54    1
    59    28    55    1
    60    31    56    1
    61    35    57    1
    62    36    58    1
    63    37    59    1
    64    38    60    1
