@<TRIPOS>MOLECULE
*****
 51 55 0 0 0
SMALL
GASTEIGER

@<TRIPOS>ATOM
      1 C          -5.4883    4.7743   -0.3485 C.2     1  UNL1       -0.0981
      2 C          -4.9771    3.6695    0.2099 C.2     1  UNL1       -0.0616
      3 C          -3.5413    3.3633    0.2853 C.ar    1  UNL1       -0.0236
      4 C          -2.5857    4.3517    0.5189 C.ar    1  UNL1       -0.0539
      5 C          -1.2300    4.0268    0.6419 C.ar    1  UNL1       -0.0514
      6 C          -0.8121    2.6845    0.5232 C.ar    1  UNL1        0.0080
      7 C           0.4578    2.0475    0.6322 C.ar    1  UNL1        0.0080
      8 C           1.7587    2.5302    0.8902 C.ar    1  UNL1       -0.0514
      9 C           2.8438    1.6473    0.8994 C.ar    1  UNL1       -0.0539
     10 C           2.6623    0.2910    0.6316 C.ar    1  UNL1       -0.0230
     11 C           3.7882   -0.6559    0.6356 C.2     1  UNL1       -0.0535
     12 C           4.9561   -0.4060    0.0211 C.2     1  UNL1       -0.0474
     13 C           6.0676   -1.3055   -0.0067 C.ar    1  UNL1        0.0122
     14 C           7.2534   -1.1261   -0.7057 C.ar    1  UNL1       -0.0475
     15 C           8.1822   -2.1932   -0.5368 C.ar    1  UNL1       -0.0542
     16 C           7.6889   -3.1702    0.2934 C.ar    1  UNL1       -0.0238
     17 S           6.1234   -2.7968    0.8588 S.2     1  UNL1       -0.0973
     18 C           1.3710   -0.2049    0.3940 C.ar    1  UNL1       -0.0301
     19 C           0.2697    0.6805    0.4212 C.ar    1  UNL1        0.0555
     20 N          -1.0939    0.4737    0.1976 N.ar    1  UNL1       -0.3087
     21 C          -1.7061   -0.7894   -0.0597 C.ar    1  UNL1        0.0474
     22 C          -2.6634   -0.9144   -1.0733 C.ar    1  UNL1       -0.0344
     23 C          -3.2627   -2.1539   -1.3288 C.ar    1  UNL1       -0.0180
     24 C          -2.9135   -3.2730   -0.5726 C.ar    1  UNL1        0.1202
     25 O          -3.4224   -4.5338   -0.7180 O.3     1  UNL1       -0.4951
     26 C          -4.3958   -4.7213   -1.7375 C.3     1  UNL1        0.0788
     27 C          -1.9589   -3.1426    0.4391 C.ar    1  UNL1       -0.0180
     28 C          -1.3531   -1.9102    0.6979 C.ar    1  UNL1       -0.0344
     29 C          -1.7640    1.6979    0.2622 C.ar    1  UNL1        0.0555
     30 C          -3.1374    2.0227    0.1804 C.ar    1  UNL1       -0.0301
     31 H          -4.8673    5.5390   -0.8033 H       1  UNL1        0.0535
     32 H          -6.5625    4.9284   -0.3752 H       1  UNL1        0.0535
     33 H          -5.6499    2.9229    0.6261 H       1  UNL1        0.0618
     34 H          -2.8820    5.3914    0.6359 H       1  UNL1        0.0624
     35 H          -0.5046    4.8101    0.8436 H       1  UNL1        0.0624
     36 H           1.9221    3.5876    1.0787 H       1  UNL1        0.0624
     37 H           3.8339    2.0411    1.1172 H       1  UNL1        0.0624
     38 H           3.5954   -1.5907    1.1543 H       1  UNL1        0.0624
     39 H           5.0827    0.5319   -0.5158 H       1  UNL1        0.0629
     40 H           7.4473   -0.2557   -1.3215 H       1  UNL1        0.0629
     41 H           9.1598   -2.2390   -1.0005 H       1  UNL1        0.0623
     42 H           8.1725   -4.0881    0.5977 H       1  UNL1        0.0693
     43 H           1.2331   -1.2577    0.1635 H       1  UNL1        0.0644
     44 H          -2.9269   -0.0699   -1.7063 H       1  UNL1        0.0639
     45 H          -3.9912   -2.2107   -2.1308 H       1  UNL1        0.0655
     46 H          -5.2883   -4.1161   -1.5473 H       1  UNL1        0.0660
     47 H          -4.6976   -5.7730   -1.7222 H       1  UNL1        0.0660
     48 H          -3.9770   -4.5095   -2.7269 H       1  UNL1        0.0660
     49 H          -1.6895   -4.0099    1.0376 H       1  UNL1        0.0655
     50 H          -0.6441   -1.8408    1.5192 H       1  UNL1        0.0639
     51 H          -3.8834    1.2448    0.0454 H       1  UNL1        0.0644
@<TRIPOS>BOND
     1     1     2    2
     2     2     3    1
     3     3     4   ar
     4     4     5   ar
     5     5     6   ar
     6     6     7   ar
     7     7     8   ar
     8     8     9   ar
     9     9    10   ar
    10    10    11    1
    11    11    12    2
    12    12    13    1
    13    13    14   ar
    14    14    15   ar
    15    15    16   ar
    16    16    17   ar
    17    10    18   ar
    18    18    19   ar
    19    19    20   ar
    20    20    21    1
    21    21    22   ar
    22    22    23   ar
    23    23    24   ar
    24    24    25    1
    25    25    26    1
    26    24    27   ar
    27    27    28   ar
    28    20    29   ar
    29    29    30   ar
    30    30     3   ar
    31    29     6   ar
    32    19     7   ar
    33    28    21   ar
    34    17    13   ar
    35     1    31    1
    36     1    32    1
    37     2    33    1
    38     4    34    1
    39     5    35    1
    40     8    36    1
    41     9    37    1
    42    11    38    1
    43    12    39    1
    44    14    40    1
    45    15    41    1
    46    16    42    1
    47    18    43    1
    48    22    44    1
    49    23    45    1
    50    26    46    1
    51    26    47    1
    52    26    48    1
    53    27    49    1
    54    28    50    1
    55    30    51    1
