@<TRIPOS>MOLECULE
*****
 64 69 0 0 0
SMALL
GASTEIGER

@<TRIPOS>ATOM
      1 C          -8.6292   -1.7842    0.7907 C.2     1  UNL1       -0.0981
      2 C          -7.8833   -2.0970    1.8580 C.2     1  UNL1       -0.0616
      3 C          -6.4164   -2.1869    1.8444 C.ar    1  UNL1       -0.0236
      4 C          -5.7983   -3.1667    2.6204 C.ar    1  UNL1       -0.0539
      5 C          -4.4037   -3.2632    2.6804 C.ar    1  UNL1       -0.0514
      6 C          -3.6023   -2.3632    1.9466 C.ar    1  UNL1        0.0080
      7 C          -2.1928   -2.1900    1.8282 C.ar    1  UNL1        0.0080
      8 C          -1.0880   -2.8656    2.3881 C.ar    1  UNL1       -0.0514
      9 C           0.2131   -2.4847    2.0415 C.ar    1  UNL1       -0.0539
     10 C           0.4412   -1.4448    1.1406 C.ar    1  UNL1       -0.0230
     11 C           1.8300   -1.1300    0.7659 C.2     1  UNL1       -0.0535
     12 C           2.2747    0.1146    0.5223 C.2     1  UNL1       -0.0472
     13 C           3.6227    0.4177    0.1463 C.ar    1  UNL1        0.0157
     14 S           4.9538   -0.5539    0.6428 S.2     1  UNL1       -0.0881
     15 C           6.1148    0.4266   -0.1407 C.ar    1  UNL1        0.0267
     16 C           7.5376    0.1479   -0.1180 C.ar    1  UNL1        0.0262
     17 C           8.5591    1.0346   -0.4186 C.ar    1  UNL1       -0.0435
     18 C           9.8709    0.4629   -0.3177 C.ar    1  UNL1       -0.0428
     19 C          11.1355    1.2064   -0.5818 C.3     1  UNL1       -0.0392
     20 C           9.7942   -0.8605    0.0628 C.ar    1  UNL1       -0.0208
     21 S           8.1882   -1.3904    0.2837 S.2     1  UNL1       -0.0959
     22 C           5.4939    1.4953   -0.7571 C.ar    1  UNL1       -0.0429
     23 C           4.0669    1.5063   -0.5983 C.ar    1  UNL1       -0.0356
     24 C           3.1861    2.5644   -1.1842 C.3     1  UNL1       -0.0386
     25 C          -0.6516   -0.7746    0.5678 C.ar    1  UNL1       -0.0301
     26 C          -1.9654   -1.1291    0.9508 C.ar    1  UNL1        0.0555
     27 N          -3.2112   -0.6414    0.5488 N.ar    1  UNL1       -0.3087
     28 C          -3.4178    0.4594   -0.3357 C.ar    1  UNL1        0.0474
     29 C          -4.3770    0.3780   -1.3516 C.ar    1  UNL1       -0.0344
     30 C          -4.5783    1.4586   -2.2193 C.ar    1  UNL1       -0.0180
     31 C          -3.8280    2.6259   -2.0752 C.ar    1  UNL1        0.1202
     32 O          -3.9278    3.7483   -2.8501 O.3     1  UNL1       -0.4951
     33 C          -4.9111    3.7354   -3.8771 C.3     1  UNL1        0.0788
     34 C          -2.8717    2.7022   -1.0595 C.ar    1  UNL1       -0.0180
     35 C          -2.6620    1.6272   -0.1919 C.ar    1  UNL1       -0.0344
     36 C          -4.2202   -1.3973    1.1503 C.ar    1  UNL1        0.0555
     37 C          -5.6284   -1.2762    1.1225 C.ar    1  UNL1       -0.0301
     38 H          -8.1962   -1.5774   -0.1821 H       1  UNL1        0.0535
     39 H          -9.7111   -1.7458    0.8702 H       1  UNL1        0.0535
     40 H          -8.3708   -2.3239    2.8030 H       1  UNL1        0.0618
     41 H          -6.3951   -3.8710    3.1962 H       1  UNL1        0.0624
     42 H          -3.9419   -4.0269    3.3001 H       1  UNL1        0.0624
     43 H          -1.2425   -3.6895    3.0792 H       1  UNL1        0.0624
     44 H           1.0492   -3.0229    2.4840 H       1  UNL1        0.0624
     45 H           2.4920   -1.9906    0.7038 H       1  UNL1        0.0624
     46 H           1.5880    0.9544    0.5877 H       1  UNL1        0.0629
     47 H           8.3837    2.0669   -0.6968 H       1  UNL1        0.0632
     48 H          11.3310    1.9179    0.2268 H       1  UNL1        0.0278
     49 H          11.9907    0.5265   -0.6544 H       1  UNL1        0.0278
     50 H          11.0652    1.7614   -1.5228 H       1  UNL1        0.0278
     51 H          10.6108   -1.5515    0.2237 H       1  UNL1        0.0696
     52 H           6.0332    2.2507   -1.3159 H       1  UNL1        0.0632
     53 H           2.4195    2.1161   -1.8244 H       1  UNL1        0.0278
     54 H           3.7621    3.2682   -1.7939 H       1  UNL1        0.0278
     55 H           2.6920    3.1325   -0.3895 H       1  UNL1        0.0278
     56 H          -0.4866   -0.0110   -0.1861 H       1  UNL1        0.0644
     57 H          -4.9494   -0.5325   -1.5139 H       1  UNL1        0.0639
     58 H          -5.3226    1.3507   -3.0014 H       1  UNL1        0.0655
     59 H          -4.6948    2.9607   -4.6200 H       1  UNL1        0.0660
     60 H          -5.9165    3.6147   -3.4604 H       1  UNL1        0.0660
     61 H          -4.8760    4.7036   -4.3858 H       1  UNL1        0.0660
     62 H          -2.2909    3.6134   -0.9367 H       1  UNL1        0.0655
     63 H          -1.9385    1.7395    0.6118 H       1  UNL1        0.0639
     64 H          -6.1029   -0.4697    0.5719 H       1  UNL1        0.0644
@<TRIPOS>BOND
     1     1     2    2
     2     2     3    1
     3     3     4   ar
     4     4     5   ar
     5     5     6   ar
     6     6     7   ar
     7     7     8   ar
     8     8     9   ar
     9     9    10   ar
    10    10    11    1
    11    11    12    2
    12    12    13    1
    13    13    14   ar
    14    14    15   ar
    15    15    16    1
    16    16    17   ar
    17    17    18   ar
    18    18    19    1
    19    18    20   ar
    20    20    21   ar
    21    15    22   ar
    22    22    23   ar
    23    23    24    1
    24    10    25   ar
    25    25    26   ar
    26    26    27   ar
    27    27    28    1
    28    28    29   ar
    29    29    30   ar
    30    30    31   ar
    31    31    32    1
    32    32    33    1
    33    31    34   ar
    34    34    35   ar
    35    27    36   ar
    36    36    37   ar
    37    37     3   ar
    38    36     6   ar
    39    26     7   ar
    40    35    28   ar
    41    23    13   ar
    42    21    16   ar
    43     1    38    1
    44     1    39    1
    45     2    40    1
    46     4    41    1
    47     5    42    1
    48     8    43    1
    49     9    44    1
    50    11    45    1
    51    12    46    1
    52    17    47    1
    53    19    48    1
    54    19    49    1
    55    19    50    1
    56    20    51    1
    57    22    52    1
    58    24    53    1
    59    24    54    1
    60    24    55    1
    61    25    56    1
    62    29    57    1
    63    30    58    1
    64    33    59    1
    65    33    60    1
    66    33    61    1
    67    34    62    1
    68    35    63    1
    69    37    64    1
