@<TRIPOS>MOLECULE
*****
 78 85 0 0 0
SMALL
GASTEIGER

@<TRIPOS>ATOM
      1 C         -11.7380    1.4995   -0.8645 C.2     1  UNL1       -0.0981
      2 C         -11.0723    2.6167   -0.5433 C.2     1  UNL1       -0.0616
      3 C          -9.6095    2.7567   -0.5874 C.ar    1  UNL1       -0.0236
      4 C          -9.0673    3.9955   -0.9284 C.ar    1  UNL1       -0.0539
      5 C          -7.6829    4.1982   -0.9376 C.ar    1  UNL1       -0.0514
      6 C          -6.8128    3.1393   -0.6027 C.ar    1  UNL1        0.0080
      7 C          -5.3953    3.0417   -0.4951 C.ar    1  UNL1        0.0080
      8 C          -4.3479    3.9657   -0.6938 C.ar    1  UNL1       -0.0514
      9 C          -3.0178    3.5550   -0.5556 C.ar    1  UNL1       -0.0539
     10 C          -2.7052    2.2322   -0.2453 C.ar    1  UNL1       -0.0230
     11 C          -1.2879    1.8535   -0.1287 C.2     1  UNL1       -0.0535
     12 C          -0.7927    0.6960   -0.5962 C.2     1  UNL1       -0.0472
     13 C           0.5842    0.3226   -0.4891 C.ar    1  UNL1        0.0157
     14 S           1.8535    1.4841   -0.5443 S.2     1  UNL1       -0.0881
     15 C           3.0927    0.3089   -0.4243 C.ar    1  UNL1        0.0267
     16 C           4.4974    0.6723   -0.4234 C.ar    1  UNL1        0.0265
     17 C           5.0555    1.9335   -0.5232 C.ar    1  UNL1       -0.0458
     18 C           6.4832    1.9155   -0.4949 C.ar    1  UNL1       -0.0458
     19 C           7.0059    0.6409   -0.3723 C.ar    1  UNL1        0.0265
     20 C           8.4110    0.2791   -0.3209 C.ar    1  UNL1        0.0265
     21 C           9.4898    1.1256   -0.4994 C.ar    1  UNL1       -0.0458
     22 C          10.7471    0.4592   -0.3836 C.ar    1  UNL1       -0.0458
     23 C          10.6210   -0.8920   -0.1170 C.ar    1  UNL1        0.0265
     24 C          11.7009   -1.8478    0.0541 C.ar    1  UNL1        0.0262
     25 C          13.0569   -1.6035   -0.0995 C.ar    1  UNL1       -0.0435
     26 C          13.8850   -2.7507    0.1399 C.ar    1  UNL1       -0.0428
     27 C          15.3729   -2.7531    0.0462 C.3     1  UNL1       -0.0392
     28 C          13.1135   -3.8429    0.4770 C.ar    1  UNL1       -0.0208
     29 S          11.4459   -3.4898    0.4956 S.2     1  UNL1       -0.0959
     30 S           8.9614   -1.3173   -0.0148 S.2     1  UNL1       -0.0872
     31 S           5.7350   -0.5102   -0.2927 S.2     1  UNL1       -0.0872
     32 C           2.5388   -0.9545   -0.3418 C.ar    1  UNL1       -0.0429
     33 C           1.1040   -0.9632   -0.3844 C.ar    1  UNL1       -0.0356
     34 C           0.2931   -2.2188   -0.3204 C.3     1  UNL1       -0.0386
     35 C          -3.7394    1.3100   -0.0170 C.ar    1  UNL1       -0.0301
     36 C          -5.0842    1.7330   -0.1232 C.ar    1  UNL1        0.0555
     37 N          -6.2887    1.0390    0.0169 N.ar    1  UNL1       -0.3087
     38 C          -6.4110   -0.3302    0.3987 C.ar    1  UNL1        0.0474
     39 C          -7.2887   -1.1759   -0.2864 C.ar    1  UNL1       -0.0344
     40 C          -7.4015   -2.5153    0.0951 C.ar    1  UNL1       -0.0180
     41 C          -6.6525   -3.0225    1.1599 C.ar    1  UNL1        0.1202
     42 O          -6.8661   -4.3461    1.4279 O.3     1  UNL1       -0.4951
     43 C          -6.1540   -4.9033    2.5257 C.3     1  UNL1        0.0788
     44 C          -5.7777   -2.1766    1.8424 C.ar    1  UNL1       -0.0180
     45 C          -5.6537   -0.8345    1.4628 C.ar    1  UNL1       -0.0344
     46 C          -7.3529    1.8926   -0.2835 C.ar    1  UNL1        0.0555
     47 C          -8.7531    1.7010   -0.2360 C.ar    1  UNL1       -0.0301
     48 H         -12.8221    1.4734   -0.8147 H       1  UNL1        0.0535
     49 H         -11.2377    0.5960   -1.1964 H       1  UNL1        0.0535
     50 H         -11.6307    3.5014   -0.2452 H       1  UNL1        0.0618
     51 H          -9.7175    4.8274   -1.1904 H       1  UNL1        0.0624
     52 H          -7.2822    5.1744   -1.1960 H       1  UNL1        0.0624
     53 H          -4.5690    4.9935   -0.9672 H       1  UNL1        0.0624
     54 H          -2.2271    4.2835   -0.7224 H       1  UNL1        0.0624
     55 H          -0.6521    2.5920    0.3534 H       1  UNL1        0.0624
     56 H          -1.4560   -0.0241   -1.0692 H       1  UNL1        0.0629
     57 H           4.4760    2.8442   -0.6163 H       1  UNL1        0.0629
     58 H           7.0867    2.8121   -0.5625 H       1  UNL1        0.0629
     59 H           9.3975    2.1838   -0.7091 H       1  UNL1        0.0629
     60 H          11.6981    0.9650   -0.4940 H       1  UNL1        0.0629
     61 H          13.4584   -0.6365   -0.3772 H       1  UNL1        0.0632
     62 H          15.7571   -3.7638   -0.1267 H       1  UNL1        0.0278
     63 H          15.7110   -2.1192   -0.7799 H       1  UNL1        0.0278
     64 H          15.8094   -2.3732    0.9755 H       1  UNL1        0.0278
     65 H          13.4502   -4.8431    0.7147 H       1  UNL1        0.0696
     66 H           3.1301   -1.8593   -0.2607 H       1  UNL1        0.0632
     67 H          -0.5002   -2.1301    0.4292 H       1  UNL1        0.0278
     68 H           0.9141   -3.0789   -0.0472 H       1  UNL1        0.0278
     69 H          -0.1627   -2.4252   -1.2942 H       1  UNL1        0.0278
     70 H          -3.5035    0.2788    0.2264 H       1  UNL1        0.0644
     71 H          -7.8615   -0.8273   -1.1424 H       1  UNL1        0.0639
     72 H          -8.0768   -3.1736   -0.4470 H       1  UNL1        0.0655
     73 H          -6.4485   -5.9530    2.6161 H       1  UNL1        0.0660
     74 H          -6.4172   -4.4026    3.4633 H       1  UNL1        0.0660
     75 H          -5.0734   -4.8743    2.3505 H       1  UNL1        0.0660
     76 H          -5.1830   -2.5247    2.6805 H       1  UNL1        0.0655
     77 H          -4.9940   -0.1903    2.0403 H       1  UNL1        0.0639
     78 H          -9.1691    0.7548    0.0967 H       1  UNL1        0.0644
@<TRIPOS>BOND
     1     1     2    2
     2     2     3    1
     3     3     4   ar
     4     4     5   ar
     5     5     6   ar
     6     6     7   ar
     7     7     8   ar
     8     8     9   ar
     9     9    10   ar
    10    10    11    1
    11    11    12    2
    12    12    13    1
    13    13    14   ar
    14    14    15   ar
    15    15    16    1
    16    16    17   ar
    17    17    18   ar
    18    18    19   ar
    19    19    20    1
    20    20    21   ar
    21    21    22   ar
    22    22    23   ar
    23    23    24    1
    24    24    25   ar
    25    25    26   ar
    26    26    27    1
    27    26    28   ar
    28    28    29   ar
    29    23    30   ar
    30    19    31   ar
    31    15    32   ar
    32    32    33   ar
    33    33    34    1
    34    10    35   ar
    35    35    36   ar
    36    36    37   ar
    37    37    38    1
    38    38    39   ar
    39    39    40   ar
    40    40    41   ar
    41    41    42    1
    42    42    43    1
    43    41    44   ar
    44    44    45   ar
    45    37    46   ar
    46    46    47   ar
    47    47     3   ar
    48    46     6   ar
    49    36     7   ar
    50    45    38   ar
    51    33    13   ar
    52    31    16   ar
    53    30    20   ar
    54    29    24   ar
    55     1    48    1
    56     1    49    1
    57     2    50    1
    58     4    51    1
    59     5    52    1
    60     8    53    1
    61     9    54    1
    62    11    55    1
    63    12    56    1
    64    17    57    1
    65    18    58    1
    66    21    59    1
    67    22    60    1
    68    25    61    1
    69    27    62    1
    70    27    63    1
    71    27    64    1
    72    28    65    1
    73    32    66    1
    74    34    67    1
    75    34    68    1
    76    34    69    1
    77    35    70    1
    78    39    71    1
    79    40    72    1
    80    43    73    1
    81    43    74    1
    82    43    75    1
    83    44    76    1
    84    45    77    1
    85    47    78    1
