@<TRIPOS>MOLECULE
*****
 40 43 0 0 0
SMALL
GASTEIGER

@<TRIPOS>ATOM
      1 C          -2.2325   -4.3725    0.1280 C.2     1  UNL1       -0.0981
      2 C          -3.0540   -3.4060    0.5583 C.2     1  UNL1       -0.0616
      3 C          -2.8256   -1.9672    0.3594 C.ar    1  UNL1       -0.0236
      4 C          -3.9300   -1.1337    0.1845 C.ar    1  UNL1       -0.0539
      5 C          -3.7737    0.2498    0.0446 C.ar    1  UNL1       -0.0514
      6 C          -2.4837    0.8204    0.0749 C.ar    1  UNL1        0.0080
      7 C          -2.0117    2.1629   -0.0018 C.ar    1  UNL1        0.0079
      8 C          -2.6647    3.4070   -0.1498 C.ar    1  UNL1       -0.0520
      9 C          -1.9161    4.5832   -0.2325 C.ar    1  UNL1       -0.0611
     10 C          -0.5298    4.5345   -0.1837 C.ar    1  UNL1       -0.0598
     11 C           0.1394    3.3161   -0.0343 C.ar    1  UNL1       -0.0372
     12 C          -0.6179    2.1314    0.0874 C.ar    1  UNL1        0.0549
     13 N          -0.2364    0.7944    0.2268 N.ar    1  UNL1       -0.3087
     14 C           1.1070    0.3276    0.3474 C.ar    1  UNL1        0.0474
     15 C           2.0092    0.9882    1.1867 C.ar    1  UNL1       -0.0344
     16 C           3.3222    0.5231    1.2990 C.ar    1  UNL1       -0.0180
     17 C           3.7500   -0.5951    0.5790 C.ar    1  UNL1        0.1202
     18 O           5.0581   -0.9383    0.7818 O.3     1  UNL1       -0.4951
     19 C           5.5417   -2.0746    0.0769 C.3     1  UNL1        0.0788
     20 C           2.8490   -1.2515   -0.2597 C.ar    1  UNL1       -0.0180
     21 C           1.5305   -0.7943   -0.3749 C.ar    1  UNL1       -0.0344
     22 C          -1.3755   -0.0149    0.2226 C.ar    1  UNL1        0.0555
     23 C          -1.5387   -1.4076    0.4049 C.ar    1  UNL1       -0.0301
     24 H          -1.3192   -4.1624   -0.4182 H       1  UNL1        0.0535
     25 H          -2.4742   -5.4159    0.3056 H       1  UNL1        0.0535
     26 H          -3.9703   -3.6795    1.0768 H       1  UNL1        0.0618
     27 H          -4.9352   -1.5491    0.1600 H       1  UNL1        0.0624
     28 H          -4.6488    0.8821   -0.0765 H       1  UNL1        0.0624
     29 H          -3.7485    3.4511   -0.2097 H       1  UNL1        0.0624
     30 H          -2.4226    5.5376   -0.3509 H       1  UNL1        0.0618
     31 H           0.0455    5.4534   -0.2716 H       1  UNL1        0.0618
     32 H           1.2250    3.3014   -0.0328 H       1  UNL1        0.0638
     33 H           1.7032    1.8366    1.7936 H       1  UNL1        0.0639
     34 H           4.0178    1.0329    1.9618 H       1  UNL1        0.0655
     35 H           4.9979   -2.9799    0.3661 H       1  UNL1        0.0660
     36 H           5.4983   -1.9152   -1.0056 H       1  UNL1        0.0660
     37 H           6.5918   -2.2156    0.3505 H       1  UNL1        0.0660
     38 H           3.1400   -2.1171   -0.8455 H       1  UNL1        0.0655
     39 H           0.8629   -1.3028   -1.0670 H       1  UNL1        0.0639
     40 H          -0.6805   -2.0405    0.6087 H       1  UNL1        0.0644
@<TRIPOS>BOND
     1     1     2    2
     2     2     3    1
     3     3     4   ar
     4     4     5   ar
     5     5     6   ar
     6     6     7   ar
     7     7     8   ar
     8     8     9   ar
     9     9    10   ar
    10    10    11   ar
    11    11    12   ar
    12    12    13   ar
    13    13    14    1
    14    14    15   ar
    15    15    16   ar
    16    16    17   ar
    17    17    18    1
    18    18    19    1
    19    17    20   ar
    20    20    21   ar
    21    13    22   ar
    22    22    23   ar
    23    23     3   ar
    24    22     6   ar
    25    12     7   ar
    26    21    14   ar
    27     1    24    1
    28     1    25    1
    29     2    26    1
    30     4    27    1
    31     5    28    1
    32     8    29    1
    33     9    30    1
    34    10    31    1
    35    11    32    1
    36    15    33    1
    37    16    34    1
    38    19    35    1
    39    19    36    1
    40    19    37    1
    41    20    38    1
    42    21    39    1
    43    23    40    1
