@<TRIPOS>MOLECULE
*****
 19 19 0 0 0
SMALL
GASTEIGER

@<TRIPOS>ATOM
      1 C          -2.9222   -1.7006   -0.5838 C.2     1  UNL1       -0.0976
      2 C          -1.7305   -1.4579   -0.0216 C.2     1  UNL1       -0.0543
      3 C          -1.3712   -0.2118    0.5866 C.ar    1  UNL1        0.0256
      4 S          -2.5672    0.7499    1.3922 S.2     1  UNL1       -0.0964
      5 C          -1.4459    1.9448    1.8351 C.ar    1  UNL1       -0.0230
      6 C          -0.1798    1.6370    1.4059 C.ar    1  UNL1       -0.0401
      7 C          -0.1106    0.3875    0.6861 C.ar    1  UNL1        0.0731
      8 C           1.1252   -0.1712    0.1216 C.2     1  UNL1        0.3400
      9 O           1.1959   -1.2355   -0.4821 O.2     1  UNL1       -0.2449
     10 O           2.2058    0.6368    0.3495 O.3     1  UNL1       -0.4644
     11 C           3.4323    0.1359   -0.1826 C.3     1  UNL1        0.0820
     12 H          -3.1187   -2.6650   -1.0424 H       1  UNL1        0.0535
     13 H          -3.7226   -0.9696   -0.6247 H       1  UNL1        0.0535
     14 H          -0.9787   -2.2436   -0.0598 H       1  UNL1        0.0623
     15 H          -1.7632    2.8153    2.3930 H       1  UNL1        0.0694
     16 H           0.6737    2.2774    1.5975 H       1  UNL1        0.0631
     17 H           3.3674    0.0382   -1.2708 H       1  UNL1        0.0661
     18 H           4.2219    0.8548    0.0530 H       1  UNL1        0.0661
     19 H           3.6883   -0.8225    0.2799 H       1  UNL1        0.0661
@<TRIPOS>BOND
     1     1     2    2
     2     2     3    1
     3     3     4   ar
     4     4     5   ar
     5     5     6   ar
     6     6     7   ar
     7     7     8    1
     8     8     9    2
     9     8    10    1
    10    10    11    1
    11     7     3   ar
    12     1    12    1
    13     1    13    1
    14     2    14    1
    15     5    15    1
    16     6    16    1
    17    11    17    1
    18    11    18    1
    19    11    19    1
