@<TRIPOS>MOLECULE
*****
 39 40 0 0 0
SMALL
GASTEIGER

@<TRIPOS>ATOM
      1 C          -3.6709   -3.4063    0.0388 C.2     1  UNL1       -0.1023
      2 C          -2.5353   -2.6983   -0.0232 C.2     1  UNL1       -0.0866
      3 C          -2.0571   -1.7706    1.0610 C.3     1  UNL1       -0.0048
      4 C          -1.7874   -0.3739    0.5575 C.ar    1  UNL1        0.0174
      5 C          -2.7919    0.5878    0.4735 C.ar    1  UNL1        0.0478
      6 C          -4.2131    0.3064    0.8690 C.3     1  UNL1       -0.0219
      7 N          -2.5594    1.8422    0.0377 N.ar    1  UNL1       -0.2268
      8 C          -1.3068    2.1432   -0.3215 C.ar    1  UNL1        0.1899
      9 S          -0.9370    3.7864   -0.8873 S.3     1  UNL1       -0.0894
     10 C          -2.5844    4.5296   -0.8254 C.3     1  UNL1       -0.0106
     11 N          -0.2818    1.2870   -0.2855 N.ar    1  UNL1       -0.2065
     12 C          -0.5171    0.0350    0.1406 C.ar    1  UNL1        0.1310
     13 N           0.5522   -0.8968    0.1730 N.pl3   1  UNL1       -0.2991
     14 C           1.9401   -0.6592    0.0523 C.ar    1  UNL1        0.0324
     15 C           2.7769   -1.7183   -0.3349 C.ar    1  UNL1       -0.0397
     16 C           4.1650   -1.5555   -0.4083 C.ar    1  UNL1       -0.0460
     17 C           4.7472   -0.3310   -0.0696 C.ar    1  UNL1        0.0589
     18 C           6.2211   -0.2015   -0.1608 C.2     1  UNL1        0.3368
     19 O           6.9918   -1.0747   -0.5153 O.2     1  UNL1       -0.2451
     20 O           6.6635    1.0165    0.1978 O.3     1  UNL1       -0.4771
     21 C           3.9311    0.7209    0.3528 C.ar    1  UNL1       -0.0460
     22 C           2.5428    0.5487    0.4242 C.ar    1  UNL1       -0.0397
     23 H          -4.3358   -3.3535    0.8958 H       1  UNL1        0.0532
     24 H          -3.9615   -4.0626   -0.7767 H       1  UNL1        0.0532
     25 H          -1.9103   -2.8013   -0.9080 H       1  UNL1        0.0570
     26 H          -2.7735   -1.7337    1.8907 H       1  UNL1        0.0357
     27 H          -1.1516   -2.1969    1.5097 H       1  UNL1        0.0357
     28 H          -4.6338   -0.4946    0.2552 H       1  UNL1        0.0293
     29 H          -4.2722    0.0326    1.9266 H       1  UNL1        0.0293
     30 H          -4.8381    1.1944    0.7237 H       1  UNL1        0.0293
     31 H          -2.9750    4.5282    0.1961 H       1  UNL1        0.0345
     32 H          -3.2763    4.0001   -1.4865 H       1  UNL1        0.0345
     33 H          -2.5178    5.5676   -1.1630 H       1  UNL1        0.0345
     34 H           0.2798   -1.7383   -0.3228 H       1  UNL1        0.1536
     35 H           2.3562   -2.6878   -0.5899 H       1  UNL1        0.0636
     36 H           4.7875   -2.3899   -0.7253 H       1  UNL1        0.0626
     37 H           7.6351    0.9569    0.0857 H       1  UNL1        0.2954
     38 H           4.3576    1.6800    0.6357 H       1  UNL1        0.0626
     39 H           1.9404    1.3808    0.7802 H       1  UNL1        0.0636
@<TRIPOS>BOND
     1     1     2    2
     2     2     3    1
     3     3     4    1
     4     4     5   ar
     5     5     6    1
     6     5     7   ar
     7     7     8   ar
     8     8     9    1
     9     9    10    1
    10     8    11   ar
    11    11    12   ar
    12    12    13    1
    13    13    14    1
    14    14    15   ar
    15    15    16   ar
    16    16    17   ar
    17    17    18    1
    18    18    19    2
    19    18    20    1
    20    17    21   ar
    21    21    22   ar
    22    12     4   ar
    23    22    14   ar
    24     1    23    1
    25     1    24    1
    26     2    25    1
    27     3    26    1
    28     3    27    1
    29     6    28    1
    30     6    29    1
    31     6    30    1
    32    10    31    1
    33    10    32    1
    34    10    33    1
    35    13    34    1
    36    15    35    1
    37    16    36    1
    38    20    37    1
    39    21    38    1
    40    22    39    1
