@<TRIPOS>MOLECULE
*****
 34 35 0 0 0
SMALL
GASTEIGER

@<TRIPOS>ATOM
      1 C           0.2598   -2.3044   -1.7943 C.2     1  UNL1       -0.0991
      2 C           0.3391   -2.6082   -0.4902 C.2     1  UNL1       -0.0515
      3 C           0.2277   -1.6777    0.6912 C.3     1  UNL1        0.1060
      4 N          -0.0468   -0.3112    0.3011 N.pl3   1  UNL1       -0.1618
      5 C          -1.3275    0.2428    0.3040 C.2     1  UNL1        0.2874
      6 S          -2.7891   -0.6968    0.2875 S.3     1  UNL1       -0.0519
      7 C          -3.9774    0.5879    0.7765 C.3     1  UNL1        0.0793
      8 C          -5.3605   -0.0192    0.8891 C.2     1  UNL1        0.2208
      9 N          -5.9282   -0.4218   -0.2897 N.am    1  UNL1       -0.3286
     10 O          -5.9729   -0.1298    1.9464 O.2     1  UNL1       -0.2751
     11 N          -1.3432    1.5596    0.2956 N.2     1  UNL1       -0.0431
     12 N          -0.0136    1.8872    0.3302 N.pl3   1  UNL1       -0.1075
     13 C           0.8284    0.7850    0.2674 C.2     1  UNL1        0.2998
     14 C           2.1785    0.8638    0.1627 C.2     1  UNL1        0.1095
     15 C           3.0882   -0.2607   -0.0185 C.2     1  UNL1       -0.0294
     16 C           4.4222   -0.1103   -0.0365 C.2     1  UNL1        0.0189
     17 BR          5.5693   -1.5640   -0.2825 Br      1  UNL1       -0.0503
     18 C           5.0240    1.1930    0.1221 C.2     1  UNL1       -0.0441
     19 C           4.2874    2.3063    0.2211 C.2     1  UNL1       -0.0130
     20 C           2.8038    2.2456    0.1937 C.2     1  UNL1        0.1936
     21 O           2.1663    3.2950    0.2001 O.2     1  UNL1       -0.2870
     22 H           0.3506   -3.0782   -2.5508 H       1  UNL1        0.0533
     23 H           0.0959   -1.2895   -2.1448 H       1  UNL1        0.0533
     24 H           0.4966   -3.6526   -0.2247 H       1  UNL1        0.0603
     25 H          -0.5554   -2.0585    1.3577 H       1  UNL1        0.0777
     26 H           1.1420   -1.7392    1.2915 H       1  UNL1        0.0777
     27 H          -4.0091    1.3932    0.0354 H       1  UNL1        0.0476
     28 H          -3.7009    1.0090    1.7483 H       1  UNL1        0.0476
     29 H          -5.3291   -0.6568   -1.0713 H       1  UNL1        0.1450
     30 H          -6.7981   -0.9318   -0.2046 H       1  UNL1        0.1450
     31 H           0.3557    2.8336    0.1987 H       1  UNL1        0.3273
     32 H           2.6782   -1.2470   -0.1815 H       1  UNL1        0.0638
     33 H           6.1081    1.2654    0.1428 H       1  UNL1        0.0630
     34 H           4.7298    3.2903    0.3187 H       1  UNL1        0.0656
@<TRIPOS>BOND
     1     1     2    2
     2     2     3    1
     3     3     4    1
     4     4     5    1
     5     5     6    1
     6     6     7    1
     7     7     8    1
     8     8     9   am
     9     8    10    2
    10     5    11    2
    11    11    12    1
    12    12    13    1
    13    13    14    2
    14    14    15    1
    15    15    16    2
    16    16    17    1
    17    16    18    1
    18    18    19    2
    19    19    20    1
    20    20    21    2
    21    13     4    1
    22    20    14    1
    23     1    22    1
    24     1    23    1
    25     2    24    1
    26     3    25    1
    27     3    26    1
    28     7    27    1
    29     7    28    1
    30     9    29    1
    31     9    30    1
    32    12    31    1
    33    15    32    1
    34    18    33    1
    35    19    34    1
