@<TRIPOS>MOLECULE
*****
 48 54 0 0 0
SMALL
GASTEIGER

@<TRIPOS>ATOM
      1 SI          1.6008   -0.0565   -2.1174 Si      1  UNL1        0.0000
      2 C           2.2029    0.7619   -0.4071 C.2     1  UNL1        0.0000
      3 C           1.1851    0.8923    0.4783 C.2     1  UNL1        0.0000
      4 C          -0.0086    0.3989   -0.0893 C.ar    1  UNL1        0.0000
      5 N          -1.2446    0.3161    0.4697 N.ar    1  UNL1        0.0000
      6 C          -2.1378   -0.2348   -0.4510 C.ar    1  UNL1        0.0000
      7 C          -1.3740   -0.5495   -1.5956 C.ar    1  UNL1        0.0000
      8 N          -1.8661   -1.1601   -2.6910 N.ar    1  UNL1        0.0000
      9 C          -3.1668   -1.4888   -2.6033 C.ar    1  UNL1        0.0000
     10 C          -4.0199   -1.2255   -1.5304 C.ar    1  UNL1        0.0000
     11 C          -5.3477   -1.6543   -1.5866 C.ar    1  UNL1        0.0000
     12 C          -6.2197   -1.4060   -0.5322 C.ar    1  UNL1        0.0000
     13 C          -5.8048   -0.6906    0.5940 C.ar    1  UNL1        0.0000
     14 C          -6.7387   -0.4456    1.6154 C.ar    1  UNL1        0.0000
     15 C          -6.3968    0.2938    2.7418 C.ar    1  UNL1        0.0000
     16 C          -5.1174    0.8103    2.8492 C.ar    1  UNL1        0.0000
     17 C          -4.1783    0.5671    1.8401 C.ar    1  UNL1        0.0000
     18 C          -4.4698   -0.2120    0.6900 C.ar    1  UNL1        0.0000
     19 C          -3.5440   -0.5295   -0.3863 C.ar    1  UNL1        0.0000
     20 C          -0.0838   -0.1253   -1.3504 C.ar    1  UNL1        0.0000
     21 C           3.6057    1.1407   -0.2471 C.ar    1  UNL1        0.0000
     22 C           3.9679    2.4396   -0.6359 C.ar    1  UNL1        0.0000
     23 C           5.2827    2.8749   -0.5092 C.ar    1  UNL1        0.0000
     24 C           6.2484    2.0189    0.0146 C.ar    1  UNL1        0.0000
     25 C           5.9147    0.7191    0.4250 C.ar    1  UNL1        0.0000
     26 C           6.9007   -0.1283    0.9579 C.ar    1  UNL1        0.0000
     27 C           6.5881   -1.4210    1.3759 C.ar    1  UNL1        0.0000
     28 C           5.2835   -1.8839    1.2684 C.ar    1  UNL1        0.0000
     29 C           4.2920   -1.0542    0.7403 C.ar    1  UNL1        0.0000
     30 C           4.5783    0.2612    0.3033 C.ar    1  UNL1        0.0000
     31 H           1.7699    0.9336   -3.2147 H       1  UNL1        0.0000
     32 H           2.2773   -1.3685   -2.2966 H       1  UNL1        0.0000
     33 H           1.2750    1.3101    1.4725 H       1  UNL1        0.0000
     34 H          -1.4554    0.5649    1.4217 H       1  UNL1        0.0000
     35 H          -3.5363   -2.0089   -3.4854 H       1  UNL1        0.0000
     36 H          -5.7206   -2.1978   -2.4528 H       1  UNL1        0.0000
     37 H          -7.2436   -1.7672   -0.6112 H       1  UNL1        0.0000
     38 H          -7.7553   -0.8266    1.5360 H       1  UNL1        0.0000
     39 H          -7.1322    0.4787    3.5197 H       1  UNL1        0.0000
     40 H          -4.8449    1.4142    3.7112 H       1  UNL1        0.0000
     41 H          -3.2186    1.0454    1.9674 H       1  UNL1        0.0000
     42 H           3.2223    3.1203   -1.0423 H       1  UNL1        0.0000
     43 H           5.5555    3.8807   -0.8172 H       1  UNL1        0.0000
     44 H           7.2714    2.3783    0.1049 H       1  UNL1        0.0000
     45 H           7.9284    0.2161    1.0527 H       1  UNL1        0.0000
     46 H           7.3631   -2.0631    1.7856 H       1  UNL1        0.0000
     47 H           5.0319   -2.8900    1.5936 H       1  UNL1        0.0000
     48 H           3.2804   -1.4491    0.6742 H       1  UNL1        0.0000
@<TRIPOS>BOND
     1     1     2    1
     2     2     3    2
     3     3     4    1
     4     4     5   ar
     5     5     6   ar
     6     6     7   ar
     7     7     8   ar
     8     8     9   ar
     9     9    10   ar
    10    10    11   ar
    11    11    12   ar
    12    12    13   ar
    13    13    14   ar
    14    14    15   ar
    15    15    16   ar
    16    16    17   ar
    17    17    18   ar
    18    18    19   ar
    19     7    20   ar
    20     2    21    1
    21    21    22   ar
    22    22    23   ar
    23    23    24   ar
    24    24    25   ar
    25    25    26   ar
    26    26    27   ar
    27    27    28   ar
    28    28    29   ar
    29    29    30   ar
    30    20     1    1
    31    30    21   ar
    32    20     4   ar
    33    30    25   ar
    34    19     6   ar
    35    19    10   ar
    36    18    13   ar
    37     1    31    1
    38     1    32    1
    39     3    33    1
    40     5    34    1
    41     9    35    1
    42    11    36    1
    43    12    37    1
    44    14    38    1
    45    15    39    1
    46    16    40    1
    47    17    41    1
    48    22    42    1
    49    23    43    1
    50    24    44    1
    51    26    45    1
    52    27    46    1
    53    28    47    1
    54    29    48    1
