@<TRIPOS>MOLECULE
*****
 44 50 0 0 0
SMALL
GASTEIGER

@<TRIPOS>ATOM
      1 SI         -1.5427   -0.5559   -0.2144 Si      1  UNL1        0.0000
      2 C          -0.2211    0.6360    0.4095 C.2     1  UNL1        0.0000
      3 C          -0.7417    1.5474    1.2563 C.2     1  UNL1        0.0000
      4 C          -2.1735    1.4240    1.4955 C.2     1  UNL1        0.0000
      5 C          -2.7815    0.4230    0.8273 C.2     1  UNL1        0.0000
      6 C          -4.1766    0.0511    0.9120 C.ar    1  UNL1        0.0000
      7 C          -4.7314   -0.6709    1.9954 C.ar    1  UNL1        0.0000
      8 C          -6.1113   -1.0451    2.0819 C.ar    1  UNL1        0.0000
      9 C          -7.0773   -0.7305    1.1017 C.ar    1  UNL1        0.0000
     10 C          -6.5291   -0.0042    0.0441 C.ar    1  UNL1        0.0000
     11 C          -7.2818    0.4264   -1.0202 C.ar    1  UNL1        0.0000
     12 S          -6.3248    1.3081   -2.1427 S.2     1  UNL1        0.0000
     13 C          -4.9009    1.1143   -1.1967 C.ar    1  UNL1        0.0000
     14 C          -5.1401    0.3795   -0.0580 C.ar    1  UNL1        0.0000
     15 C           1.1388    0.5475    0.0403 C.ar    1  UNL1        0.0000
     16 S           2.3791    0.3864    1.2444 S.2     1  UNL1        0.0000
     17 C           3.6556    0.3140    0.0935 C.ar    1  UNL1        0.0000
     18 C           5.0283    0.1498    0.4554 C.ar    1  UNL1        0.0000
     19 S           5.8327    1.2185    1.5778 S.2     1  UNL1        0.0000
     20 C           7.3510    0.3900    1.4604 C.ar    1  UNL1        0.0000
     21 C           7.1882   -0.6341    0.6043 C.ar    1  UNL1        0.0000
     22 O           8.1364   -1.5384    0.2388 O.2     1  UNL1        0.0000
     23 C           7.3896   -2.3206   -0.6234 C.ar    1  UNL1        0.0000
     24 C           6.0590   -1.9070   -0.7673 C.ar    1  UNL1        0.0000
     25 C           5.9366   -0.7715    0.0559 C.ar    1  UNL1        0.0000
     26 C           3.1585    0.4275   -1.1762 C.ar    1  UNL1        0.0000
     27 S           3.9672    0.4610   -2.7967 S.2     1  UNL1        0.0000
     28 C           2.3475    0.6576   -3.4406 C.ar    1  UNL1        0.0000
     29 C           1.3088    0.6945   -2.5048 C.ar    1  UNL1        0.0000
     30 C           1.7667    0.5531   -1.1661 C.ar    1  UNL1        0.0000
     31 H          -1.3485   -1.9436    0.2801 H       1  UNL1        0.0000
     32 H          -1.7898   -0.4041   -1.6732 H       1  UNL1        0.0000
     33 H          -0.1719    2.3295    1.7445 H       1  UNL1        0.0000
     34 H          -2.6817    2.1017    2.1715 H       1  UNL1        0.0000
     35 H          -4.0762   -0.9676    2.8159 H       1  UNL1        0.0000
     36 H          -6.4323   -1.6059    2.9607 H       1  UNL1        0.0000
     37 H          -8.1157   -1.0217    1.1888 H       1  UNL1        0.0000
     38 H          -8.3370    0.2833   -1.2079 H       1  UNL1        0.0000
     39 H          -3.9775    1.5590   -1.5398 H       1  UNL1        0.0000
     40 H           8.2387    0.6827    2.0015 H       1  UNL1        0.0000
     41 H           7.9439   -3.1411   -1.0603 H       1  UNL1        0.0000
     42 H           5.3098   -2.3798   -1.3860 H       1  UNL1        0.0000
     43 H           2.2522    0.7463   -4.5145 H       1  UNL1        0.0000
     44 H           0.2757    0.8301   -2.8008 H       1  UNL1        0.0000
@<TRIPOS>BOND
     1     1     2    1
     2     2     3    2
     3     3     4    1
     4     4     5    2
     5     5     6    1
     6     6     7   ar
     7     7     8   ar
     8     8     9   ar
     9     9    10   ar
    10    10    11   ar
    11    11    12   ar
    12    12    13   ar
    13    13    14   ar
    14     2    15    1
    15    15    16   ar
    16    16    17   ar
    17    17    18    1
    18    18    19   ar
    19    19    20   ar
    20    20    21   ar
    21    21    22   ar
    22    22    23   ar
    23    23    24   ar
    24    24    25   ar
    25    17    26   ar
    26    26    27   ar
    27    27    28   ar
    28    28    29   ar
    29    29    30   ar
    30     5     1    1
    31    14     6   ar
    32    30    15   ar
    33    14    10   ar
    34    25    18   ar
    35    30    26   ar
    36    25    21   ar
    37     1    31    1
    38     1    32    1
    39     3    33    1
    40     4    34    1
    41     7    35    1
    42     8    36    1
    43     9    37    1
    44    11    38    1
    45    13    39    1
    46    20    40    1
    47    23    41    1
    48    24    42    1
    49    28    43    1
    50    29    44    1
