@<TRIPOS>MOLECULE
*****
 37 39 0 0 0
SMALL
GASTEIGER

@<TRIPOS>ATOM
      1 C          -5.7425   -0.1616    1.6202 C.2     1  UNL1       -0.1010
      2 C          -4.4659   -0.4839    1.3721 C.2     1  UNL1       -0.0715
      3 C          -3.9934   -1.2547    0.1729 C.3     1  UNL1        0.0454
      4 N          -3.1735   -0.3858   -0.6495 N.ar    1  UNL1       -0.2949
      5 C          -3.7765    0.4146   -1.6020 C.ar    1  UNL1        0.1001
      6 N          -3.1672    1.2297   -2.4006 N.ar    1  UNL1       -0.2298
      7 C          -1.8211    1.2661   -2.2364 C.ar    1  UNL1        0.1156
      8 S          -0.8485    2.2881   -3.1937 S.2     1  UNL1       -0.0763
      9 C           0.5761    1.7704   -2.4049 C.ar    1  UNL1       -0.0138
     10 C           0.3267    0.8313   -1.4205 C.ar    1  UNL1        0.0036
     11 C           1.4292    0.2731   -0.6494 C.ar    1  UNL1       -0.0163
     12 C           1.7150   -1.0910   -0.7136 C.ar    1  UNL1       -0.0537
     13 C           2.7835   -1.6192    0.0138 C.ar    1  UNL1       -0.0580
     14 C           3.5866   -0.7941    0.8158 C.ar    1  UNL1       -0.0475
     15 C           4.7251   -1.4023    1.5882 C.3     1  UNL1       -0.0395
     16 C           3.3037    0.5845    0.8866 C.ar    1  UNL1       -0.0470
     17 C           4.1278    1.5116    1.7373 C.3     1  UNL1       -0.0394
     18 C           2.2247    1.1038    0.1504 C.ar    1  UNL1       -0.0508
     19 C          -1.0764    0.5377   -1.3306 C.ar    1  UNL1        0.0798
     20 C          -1.7928   -0.3697   -0.4469 C.ar    1  UNL1        0.2630
     21 O          -1.2328   -1.0608    0.3996 O.2     1  UNL1       -0.2669
     22 H          -6.0080    0.3912    2.5173 H       1  UNL1        0.0532
     23 H          -6.5492   -0.4357    0.9475 H       1  UNL1        0.0532
     24 H          -3.6999   -0.1921    2.0896 H       1  UNL1        0.0584
     25 H          -4.8418   -1.6140   -0.4214 H       1  UNL1        0.0537
     26 H          -3.4226   -2.1299    0.5010 H       1  UNL1        0.0537
     27 H          -4.8733    0.3174   -1.6526 H       1  UNL1        0.1030
     28 H           1.5314    2.1783   -2.7082 H       1  UNL1        0.0700
     29 H           1.1081   -1.7556   -1.3231 H       1  UNL1        0.0624
     30 H           2.9809   -2.6872   -0.0480 H       1  UNL1        0.0620
     31 H           4.5734   -1.2611    2.6629 H       1  UNL1        0.0278
     32 H           5.6743   -0.9465    1.2894 H       1  UNL1        0.0278
     33 H           4.8058   -2.4791    1.4049 H       1  UNL1        0.0278
     34 H           3.7689    2.5442    1.6717 H       1  UNL1        0.0278
     35 H           4.0751    1.2108    2.7884 H       1  UNL1        0.0278
     36 H           5.1712    1.5048    1.4064 H       1  UNL1        0.0278
     37 H           1.9977    2.1667    0.2085 H       1  UNL1        0.0626
@<TRIPOS>BOND
     1     1     2    2
     2     2     3    1
     3     3     4    1
     4     4     5   ar
     5     5     6   ar
     6     6     7   ar
     7     7     8   ar
     8     8     9   ar
     9     9    10   ar
    10    10    11    1
    11    11    12   ar
    12    12    13   ar
    13    13    14   ar
    14    14    15    1
    15    14    16   ar
    16    16    17    1
    17    16    18   ar
    18    10    19   ar
    19    19    20   ar
    20    20    21    2
    21    20     4   ar
    22    19     7   ar
    23    18    11   ar
    24     1    22    1
    25     1    23    1
    26     2    24    1
    27     3    25    1
    28     3    26    1
    29     5    27    1
    30     9    28    1
    31    12    29    1
    32    13    30    1
    33    15    31    1
    34    15    32    1
    35    15    33    1
    36    17    34    1
    37    17    35    1
    38    17    36    1
    39    18    37    1
