@<TRIPOS>MOLECULE
*****
 25 25 0 0 0
SMALL
GASTEIGER

@<TRIPOS>ATOM
      1 C           4.4480    0.6867    0.5402 C.2     1  UNL1       -0.1012
      2 C           3.6423    0.1104   -0.3618 C.2     1  UNL1       -0.0742
      3 C           2.5600   -0.8651   -0.0300 C.3     1  UNL1        0.0300
      4 N           1.2992   -0.2088   -0.2715 N.am    1  UNL1       -0.3076
      5 C           0.1422   -0.9508   -0.3202 C.2     1  UNL1        0.2509
      6 O           0.0892   -2.1722   -0.3181 O.2     1  UNL1       -0.2700
      7 C          -1.1127   -0.1771   -0.3880 C.ar    1  UNL1        0.1149
      8 C          -1.2325    0.8510   -1.3336 C.ar    1  UNL1       -0.0247
      9 C          -2.4454    1.5298   -1.4657 C.ar    1  UNL1        0.0421
     10 CL         -2.5906    2.7900   -2.6272 Cl      1  UNL1       -0.0835
     11 C          -3.5450    1.1926   -0.6722 C.ar    1  UNL1       -0.0369
     12 C          -3.4350    0.1692    0.2716 C.ar    1  UNL1        0.0178
     13 C          -2.2146   -0.5073    0.4057 C.ar    1  UNL1        0.2853
     14 N          -2.0984   -1.5003    1.4570 N.pl3   1  UNL1        0.0804
     15 O          -2.9375   -2.4105    1.4660 O.2     1  UNL1        0.0415
     16 O          -1.2277   -1.3047    2.3161 O.co2   1  UNL1       -0.5760
     17 H           4.3558    0.4811    1.6027 H       1  UNL1        0.0532
     18 H           5.2265    1.3771    0.2294 H       1  UNL1        0.0532
     19 H           3.7835    0.3364   -1.4166 H       1  UNL1        0.0582
     20 H           2.5858   -1.1752    1.0203 H       1  UNL1        0.0506
     21 H           2.6426   -1.7608   -0.6543 H       1  UNL1        0.0506
     22 H           1.2388    0.7705   -0.0243 H       1  UNL1        0.1493
     23 H          -0.3978    1.1006   -1.9851 H       1  UNL1        0.0642
     24 H          -4.4878    1.7242   -0.7848 H       1  UNL1        0.0634
     25 H          -4.2888   -0.0868    0.8967 H       1  UNL1        0.0686
@<TRIPOS>UNITY_ATOM_ATTR
14 1
charge 1
16 1
charge -1
@<TRIPOS>BOND
     1     1     2    2
     2     2     3    1
     3     3     4    1
     4     4     5   am
     5     5     6    2
     6     5     7    1
     7     7     8   ar
     8     8     9   ar
     9     9    10    1
    10     9    11   ar
    11    11    12   ar
    12    12    13   ar
    13    13    14    1
    14    14    15    2
    15    14    16    1
    16    13     7   ar
    17     1    17    1
    18     1    18    1
    19     2    19    1
    20     3    20    1
    21     3    21    1
    22     4    22    1
    23     8    23    1
    24    11    24    1
    25    12    25    1
