@<TRIPOS>MOLECULE
*****
 30 31 0 0 0
SMALL
GASTEIGER

@<TRIPOS>ATOM
      1 C          -5.4018   -1.6158    0.8227 C.2     1  UNL1       -0.1012
      2 C          -4.7387   -1.1191   -0.2309 C.2     1  UNL1       -0.0742
      3 C          -3.5316   -0.2339   -0.1480 C.3     1  UNL1        0.0277
      4 N          -2.4027   -1.0212   -0.6078 N.pl3   1  UNL1       -0.3339
      5 C          -1.1242   -0.5410   -0.6093 C.ar    1  UNL1        0.0858
      6 S           0.1327   -1.6709   -0.3203 S.2     1  UNL1       -0.0677
      7 C           1.3782   -0.4917   -0.4370 C.ar    1  UNL1        0.0785
      8 C           2.7359   -0.9624   -0.1956 C.2     1  UNL1        0.1746
      9 O           3.0875   -2.1382   -0.1966 O.2     1  UNL1       -0.2911
     10 C           3.7776    0.0737    0.0696 C.3     1  UNL1        0.0228
     11 C           3.7103    0.9807    1.2784 C.3     1  UNL1       -0.0425
     12 C           4.7266   -0.1177    1.2363 C.3     1  UNL1       -0.0425
     13 C           0.8447    0.7440   -0.7609 C.ar    1  UNL1        0.0618
     14 N           1.5613    1.8729   -0.9963 N.pl3   1  UNL1       -0.3560
     15 C          -0.5942    0.7161   -0.8419 C.ar    1  UNL1        0.1011
     16 C          -1.3832    1.8693   -1.1590 C.1     1  UNL1        0.1034
     17 N          -1.9844    2.8334   -1.4006 N.1     1  UNL1       -0.1907
     18 H          -6.2727   -2.2492    0.6807 H       1  UNL1        0.0532
     19 H          -5.0920   -1.4116    1.8436 H       1  UNL1        0.0532
     20 H          -5.0897   -1.3497   -1.2358 H       1  UNL1        0.0582
     21 H          -3.3658    0.1128    0.8785 H       1  UNL1        0.0505
     22 H          -3.7072    0.6354   -0.7875 H       1  UNL1        0.0505
     23 H          -2.4791   -1.9962   -0.3157 H       1  UNL1        0.1469
     24 H           4.2488    0.4469   -0.8340 H       1  UNL1        0.0381
     25 H           2.8778    0.8725    1.9660 H       1  UNL1        0.0272
     26 H           4.0557    2.0016    1.1652 H       1  UNL1        0.0272
     27 H           4.5800   -0.9763    1.8833 H       1  UNL1        0.0272
     28 H           5.7665    0.1477    1.0880 H       1  UNL1        0.0272
     29 H           2.5591    1.8676   -1.1837 H       1  UNL1        0.1424
     30 H           1.1248    2.7201   -1.3609 H       1  UNL1        0.1424
@<TRIPOS>BOND
     1     1     2    2
     2     2     3    1
     3     3     4    1
     4     4     5    1
     5     5     6   ar
     6     6     7   ar
     7     7     8    1
     8     8     9    2
     9     8    10    1
    10    10    11    1
    11    11    12    1
    12     7    13   ar
    13    13    14    1
    14    13    15   ar
    15    15    16    1
    16    16    17    3
    17    15     5   ar
    18    12    10    1
    19     1    18    1
    20     1    19    1
    21     2    20    1
    22     3    21    1
    23     3    22    1
    24     4    23    1
    25    10    24    1
    26    11    25    1
    27    11    26    1
    28    12    27    1
    29    12    28    1
    30    14    29    1
    31    14    30    1
