@<TRIPOS>MOLECULE
*****
 30 31 0 0 0
SMALL
GASTEIGER

@<TRIPOS>ATOM
      1 C           4.7430    1.3779   -2.7924 C.2     1  UNL1       -0.1012
      2 C           4.2397    1.4788   -1.5546 C.2     1  UNL1       -0.0742
      3 C           3.5125    0.3832   -0.8345 C.3     1  UNL1        0.0277
      4 N           2.1272    0.7938   -0.7217 N.pl3   1  UNL1       -0.3339
      5 C           1.1443   -0.0025   -0.2106 C.ar    1  UNL1        0.0858
      6 S          -0.4740    0.3752   -0.6645 S.2     1  UNL1       -0.0674
      7 C          -1.1418   -0.8668    0.3014 C.ar    1  UNL1        0.0836
      8 C          -2.5790   -1.1102    0.3330 C.2     1  UNL1        0.2080
      9 O          -3.0350   -2.2491    0.2245 O.2     1  UNL1       -0.2855
     10 C          -3.4615    0.0415    0.5048 C.ar    1  UNL1        0.0600
     11 C          -4.7328    0.1864   -0.0246 C.ar    1  UNL1       -0.0438
     12 C          -5.3569    1.4057    0.3671 C.ar    1  UNL1       -0.0540
     13 C          -4.5592    2.1405    1.2141 C.ar    1  UNL1       -0.0236
     14 S          -3.0786    1.3532    1.5438 S.2     1  UNL1       -0.0934
     15 C          -0.1487   -1.6166    0.8989 C.ar    1  UNL1        0.0622
     16 N          -0.4079   -2.7060    1.6660 N.pl3   1  UNL1       -0.3560
     17 C           1.1634   -1.1004    0.6369 C.ar    1  UNL1        0.1011
     18 C           2.3553   -1.6720    1.1873 C.1     1  UNL1        0.1034
     19 N           3.3164   -2.1602    1.6203 N.1     1  UNL1       -0.1907
     20 H           4.6453    0.4683   -3.3772 H       1  UNL1        0.0532
     21 H           5.2679    2.2126   -3.2476 H       1  UNL1        0.0532
     22 H           4.3703    2.4088   -1.0051 H       1  UNL1        0.0582
     23 H           3.5920   -0.5641   -1.3803 H       1  UNL1        0.0505
     24 H           3.9706    0.2633    0.1521 H       1  UNL1        0.0505
     25 H           1.8350    1.4283   -1.4638 H       1  UNL1        0.1469
     26 H          -5.1890   -0.5542   -0.6725 H       1  UNL1        0.0630
     27 H          -6.3444    1.7215    0.0526 H       1  UNL1        0.0623
     28 H          -4.7804    3.0962    1.6698 H       1  UNL1        0.0693
     29 H          -1.3173   -3.1707    1.5971 H       1  UNL1        0.1424
     30 H           0.3236   -3.3623    1.9354 H       1  UNL1        0.1424
@<TRIPOS>BOND
     1     1     2    2
     2     2     3    1
     3     3     4    1
     4     4     5    1
     5     5     6   ar
     6     6     7   ar
     7     7     8    1
     8     8     9    2
     9     8    10    1
    10    10    11   ar
    11    11    12   ar
    12    12    13   ar
    13    13    14   ar
    14     7    15   ar
    15    15    16    1
    16    15    17   ar
    17    17    18    1
    18    18    19    3
    19    17     5   ar
    20    14    10   ar
    21     1    20    1
    22     1    21    1
    23     2    22    1
    24     3    23    1
    25     3    24    1
    26     4    25    1
    27    11    26    1
    28    12    27    1
    29    13    28    1
    30    16    29    1
    31    16    30    1
