@<TRIPOS>MOLECULE
*****
 30 31 0 0 0
SMALL
GASTEIGER

@<TRIPOS>ATOM
      1 C          -3.1465    0.3167   -0.3310 C.ar    1  UNL1       -0.0250
      2 C          -1.7104    0.6519   -0.2628 C.2     1  UNL1       -0.0546
      3 C          -0.6923   -0.2132   -0.1234 C.2     1  UNL1       -0.0612
      4 C           0.6923    0.2132   -0.0661 C.2     1  UNL1       -0.0612
      5 C           1.7104   -0.6519    0.0733 C.2     1  UNL1       -0.0546
      6 C           3.1465   -0.3167    0.1415 C.ar    1  UNL1       -0.0250
      7 C           3.6460    0.9909    0.0671 C.ar    1  UNL1       -0.0546
      8 C           5.0210    1.2400    0.1384 C.ar    1  UNL1       -0.0612
      9 C           5.9175    0.1852    0.2852 C.ar    1  UNL1       -0.0617
     10 C           5.4404   -1.1196    0.3610 C.ar    1  UNL1       -0.0612
     11 C           4.0663   -1.3673    0.2896 C.ar    1  UNL1       -0.0546
     12 C          -3.6460   -0.9909   -0.2564 C.ar    1  UNL1       -0.0546
     13 C          -5.0210   -1.2399   -0.3277 C.ar    1  UNL1       -0.0612
     14 C          -5.9175   -0.1852   -0.4747 C.ar    1  UNL1       -0.0617
     15 C          -5.4404    1.1196   -0.5506 C.ar    1  UNL1       -0.0612
     16 C          -4.0663    1.3673   -0.4793 C.ar    1  UNL1       -0.0546
     17 H          -1.4860    1.7147   -0.3354 H       1  UNL1        0.0623
     18 H          -0.8708   -1.2814   -0.0472 H       1  UNL1        0.0618
     19 H           0.8708    1.2814   -0.1423 H       1  UNL1        0.0618
     20 H           1.4860   -1.7147    0.1460 H       1  UNL1        0.0623
     21 H           2.9821    1.8422   -0.0475 H       1  UNL1        0.0623
     22 H           5.3892    2.2610    0.0788 H       1  UNL1        0.0618
     23 H           6.9851    0.3802    0.3404 H       1  UNL1        0.0618
     24 H           6.1353   -1.9474    0.4756 H       1  UNL1        0.0618
     25 H           3.7228   -2.3977    0.3516 H       1  UNL1        0.0623
     26 H          -2.9822   -1.8422   -0.1418 H       1  UNL1        0.0623
     27 H          -5.3892   -2.2609   -0.2680 H       1  UNL1        0.0618
     28 H          -6.9851   -0.3802   -0.5299 H       1  UNL1        0.0618
     29 H          -6.1353    1.9474   -0.6654 H       1  UNL1        0.0618
     30 H          -3.7227    2.3977   -0.5414 H       1  UNL1        0.0623
@<TRIPOS>BOND
     1     1     2    1
     2     2     3    2
     3     3     4    1
     4     4     5    2
     5     5     6    1
     6     6     7   ar
     7     7     8   ar
     8     8     9   ar
     9     9    10   ar
    10    10    11   ar
    11     1    12   ar
    12    12    13   ar
    13    13    14   ar
    14    14    15   ar
    15    15    16   ar
    16    16     1   ar
    17    11     6   ar
    18     2    17    1
    19     3    18    1
    20     4    19    1
    21     5    20    1
    22     7    21    1
    23     8    22    1
    24     9    23    1
    25    10    24    1
    26    11    25    1
    27    12    26    1
    28    13    27    1
    29    14    28    1
    30    15    29    1
    31    16    30    1
