@<TRIPOS>MOLECULE
*****
 26 27 0 0 0
SMALL
GASTEIGER

@<TRIPOS>ATOM
      1 C           3.3965    0.0481   -0.1633 C.ar    1  UNL1        0.0259
      2 C           1.9680    0.0279   -0.0946 C.1     1  UNL1       -0.0525
      3 C           0.7688    0.0109   -0.0370 C.1     1  UNL1       -0.0092
      4 C          -0.7688   -0.0109    0.0370 C.1     1  UNL1       -0.0092
      5 C          -1.9680   -0.0279    0.0946 C.1     1  UNL1       -0.0525
      6 C          -3.3965   -0.0481    0.1633 C.ar    1  UNL1        0.0259
      7 C          -4.1053    1.1412    0.3494 C.ar    1  UNL1       -0.0463
      8 C          -5.4999    1.1207    0.4163 C.ar    1  UNL1       -0.0606
      9 C          -6.1865   -0.0877    0.2975 C.ar    1  UNL1       -0.0617
     10 C          -5.4806   -1.2762    0.1117 C.ar    1  UNL1       -0.0606
     11 C          -4.0860   -1.2573    0.0445 C.ar    1  UNL1       -0.0463
     12 C           4.1554   -0.0936    1.0010 C.ar    1  UNL1       -0.0463
     13 C           5.5500   -0.0738    0.9331 C.ar    1  UNL1       -0.0606
     14 C           6.1865    0.0876   -0.2975 C.ar    1  UNL1       -0.0617
     15 C           5.4306    0.2293   -1.4611 C.ar    1  UNL1       -0.0606
     16 C           4.0359    0.2097   -1.3949 C.ar    1  UNL1       -0.0463
     17 H          -3.5783    2.0877    0.4430 H       1  UNL1        0.0630
     18 H          -6.0501    2.0469    0.5611 H       1  UNL1        0.0618
     19 H          -7.2723   -0.1030    0.3497 H       1  UNL1        0.0618
     20 H          -6.0157   -2.2178    0.0191 H       1  UNL1        0.0618
     21 H          -3.5438   -2.1886   -0.1005 H       1  UNL1        0.0630
     22 H           3.6676   -0.2199    1.9645 H       1  UNL1        0.0630
     23 H           6.1391   -0.1842    1.8398 H       1  UNL1        0.0618
     24 H           7.2723    0.1030   -0.3497 H       1  UNL1        0.0618
     25 H           5.9266    0.3551   -2.4200 H       1  UNL1        0.0618
     26 H           3.4545    0.3209   -2.3070 H       1  UNL1        0.0630
@<TRIPOS>BOND
     1     1     2    1
     2     2     3    3
     3     3     4    1
     4     4     5    3
     5     5     6    1
     6     6     7   ar
     7     7     8   ar
     8     8     9   ar
     9     9    10   ar
    10    10    11   ar
    11     1    12   ar
    12    12    13   ar
    13    13    14   ar
    14    14    15   ar
    15    15    16   ar
    16    16     1   ar
    17    11     6   ar
    18     7    17    1
    19     8    18    1
    20     9    19    1
    21    10    20    1
    22    11    21    1
    23    12    22    1
    24    13    23    1
    25    14    24    1
    26    15    25    1
    27    16    26    1
