@<TRIPOS>MOLECULE
*****
 24 25 0 0 0
SMALL
GASTEIGER

@<TRIPOS>ATOM
      1 C          -2.0263   -0.1109   -0.0807 C.ar    1  UNL1        0.0253
      2 C          -0.5993   -0.0328   -0.0239 C.1     1  UNL1       -0.0610
      3 C           0.5993    0.0328    0.0239 C.1     1  UNL1       -0.0610
      4 C           2.0263    0.1109    0.0807 C.ar    1  UNL1        0.0253
      5 C           2.7213    0.8977   -0.8408 C.ar    1  UNL1       -0.0463
      6 C           4.1145    0.9735   -0.7848 C.ar    1  UNL1       -0.0606
      7 C           4.8131    0.2635    0.1917 C.ar    1  UNL1       -0.0617
      8 C           4.1208   -0.5226    1.1127 C.ar    1  UNL1       -0.0606
      9 C           2.7276   -0.5994    1.0578 C.ar    1  UNL1       -0.0463
     10 C          -2.6429   -1.0961   -0.8555 C.ar    1  UNL1       -0.0463
     11 C          -4.0361   -1.1718   -0.9106 C.ar    1  UNL1       -0.0606
     12 C          -4.8131   -0.2635   -0.1917 C.ar    1  UNL1       -0.0617
     13 C          -4.1992    0.7210    0.5826 C.ar    1  UNL1       -0.0606
     14 C          -2.8060    0.7978    0.6385 C.ar    1  UNL1       -0.0463
     15 H           2.1837    1.4540   -1.6049 H       1  UNL1        0.0630
     16 H           4.6538    1.5861   -1.5025 H       1  UNL1        0.0618
     17 H           5.8977    0.3229    0.2349 H       1  UNL1        0.0618
     18 H           4.6651   -1.0759    1.8736 H       1  UNL1        0.0618
     19 H           2.1950   -1.2143    1.7792 H       1  UNL1        0.0630
     20 H          -2.0440   -1.8077   -1.4187 H       1  UNL1        0.0630
     21 H          -4.5144   -1.9390   -1.5139 H       1  UNL1        0.0618
     22 H          -5.8977   -0.3229   -0.2349 H       1  UNL1        0.0618
     23 H          -4.8046    1.4288    1.1428 H       1  UNL1        0.0618
     24 H          -2.3348    1.5680    1.2443 H       1  UNL1        0.0630
@<TRIPOS>BOND
     1     1     2    1
     2     2     3    3
     3     3     4    1
     4     4     5   ar
     5     5     6   ar
     6     6     7   ar
     7     7     8   ar
     8     8     9   ar
     9     1    10   ar
    10    10    11   ar
    11    11    12   ar
    12    12    13   ar
    13    13    14   ar
    14    14     1   ar
    15     9     4   ar
    16     5    15    1
    17     6    16    1
    18     7    17    1
    19     8    18    1
    20     9    19    1
    21    10    20    1
    22    11    21    1
    23    12    22    1
    24    13    23    1
    25    14    24    1
