@<TRIPOS>MOLECULE
*****
 34 37 0 0 0
SMALL
GASTEIGER

@<TRIPOS>ATOM
      1 C          -2.2854   -0.0259    0.0877 C.ar    1  UNL1        0.0000
      2 C          -1.4394    1.1387   -0.1058 C.ar    1  UNL1        0.0000
      3 C          -1.9678    2.3420   -0.5090 C.ar    1  UNL1        0.0000
      4 C          -1.1162    3.4422   -0.6842 C.ar    1  UNL1        0.0000
      5 C           0.2403    3.3366   -0.4591 C.ar    1  UNL1        0.0000
      6 C           0.7782    2.1314   -0.0541 C.ar    1  UNL1        0.0000
      7 C          -0.0790    1.0643    0.1114 C.ar    1  UNL1        0.0000
      8 B           0.5902   -0.2862    0.5749 B       1  UNL1        0.0000
      9 C           2.0971   -0.5443    0.2290 C.ar    1  UNL1        0.0000
     10 C           2.9111   -1.2465    1.1225 C.ar    1  UNL1        0.0000
     11 C           4.2397   -1.4871    0.8424 C.ar    1  UNL1        0.0000
     12 C           4.7964   -1.0438   -0.3190 C.ar    1  UNL1        0.0000
     13 C           4.0016   -0.3477   -1.2112 C.ar    1  UNL1        0.0000
     14 C           2.6632   -0.0921   -0.9547 C.ar    1  UNL1        0.0000
     15 N          -0.3879   -1.4568    0.7509 N.ar    1  UNL1        0.0000
     16 C          -1.7749   -1.2443    0.4924 C.ar    1  UNL1        0.0000
     17 C          -2.5931   -2.3625    0.6773 C.ar    1  UNL1        0.0000
     18 C          -3.9425   -2.2668    0.4559 C.ar    1  UNL1        0.0000
     19 C          -4.4587   -1.0594    0.0534 C.ar    1  UNL1        0.0000
     20 C          -3.6542    0.0711   -0.1369 C.ar    1  UNL1        0.0000
     21 H          -2.9898    2.5073   -0.7019 H       1  UNL1        0.0000
     22 H          -1.5328    4.3925   -1.0025 H       1  UNL1        0.0000
     23 H           0.8743    4.2018   -0.6021 H       1  UNL1        0.0000
     24 H           1.8599    2.0427    0.1267 H       1  UNL1        0.0000
     25 H           2.4998   -1.6093    2.0480 H       1  UNL1        0.0000
     26 H           4.8938   -2.0370    1.5327 H       1  UNL1        0.0000
     27 H           5.8301   -1.1939   -0.6078 H       1  UNL1        0.0000
     28 H           4.3891    0.0314   -2.1551 H       1  UNL1        0.0000
     29 H           2.0533    0.4611   -1.6759 H       1  UNL1        0.0000
     30 H           0.0025   -2.3759    1.0570 H       1  UNL1        0.0000
     31 H          -2.1954   -3.3179    0.9943 H       1  UNL1        0.0000
     32 H          -4.6163   -3.1105    0.5873 H       1  UNL1        0.0000
     33 H          -5.5347   -1.0048   -0.1172 H       1  UNL1        0.0000
     34 H          -4.1523    0.9494   -0.4474 H       1  UNL1        0.0000
@<TRIPOS>BOND
     1     1     2   ar
     2     2     3   ar
     3     3     4   ar
     4     4     5   ar
     5     5     6   ar
     6     2     7   ar
     7     7     8   ar
     8     8     9    1
     9     9    10   ar
    10    10    11   ar
    11    11    12   ar
    12    12    13   ar
    13    13    14   ar
    14     8    15   ar
    15     1    16   ar
    16    16    17   ar
    17    17    18   ar
    18    18    19   ar
    19    19    20   ar
    20    20     1   ar
    21     7     6   ar
    22    14     9   ar
    23    16    15   ar
    24     3    21    1
    25     4    22    1
    26     5    23    1
    27     6    24    1
    28    10    25    1
    29    11    26    1
    30    12    27    1
    31    13    28    1
    32    14    29    1
    33    15    30    1
    34    17    31    1
    35    18    32    1
    36    19    33    1
    37    20    34    1
