@<TRIPOS>MOLECULE
*****
 24 26 0 0 0
SMALL
GASTEIGER

@<TRIPOS>ATOM
      1 C           0.7209   -0.3456   -0.0959 C.ar    1  UNL1       -0.0102
      2 C          -0.7182   -0.3635   -0.0195 C.ar    1  UNL1       -0.0102
      3 C          -1.5105   -1.5307   -0.1655 C.ar    1  UNL1       -0.0534
      4 C          -2.9061   -1.5011   -0.0838 C.ar    1  UNL1       -0.0611
      5 C          -3.5597   -0.3007    0.1473 C.ar    1  UNL1       -0.0612
      6 C          -2.8169    0.8673    0.2962 C.ar    1  UNL1       -0.0540
      7 C          -1.4138    0.8505    0.2161 C.ar    1  UNL1       -0.0173
      8 C          -0.7028    2.0432    0.3707 C.ar    1  UNL1       -0.0534
      9 C           0.6871    2.0605    0.2970 C.ar    1  UNL1       -0.0534
     10 C           1.4072    0.8857    0.0664 C.ar    1  UNL1       -0.0173
     11 C           2.8100    0.9374   -0.0026 C.ar    1  UNL1       -0.0540
     12 C           3.5617   -0.2119   -0.2307 C.ar    1  UNL1       -0.0612
     13 C           2.9173   -1.4285   -0.3929 C.ar    1  UNL1       -0.0611
     14 C           1.5221   -1.4929   -0.3265 C.ar    1  UNL1       -0.0534
     15 H          -1.0489   -2.4968   -0.3479 H       1  UNL1        0.0624
     16 H          -3.4759   -2.4191   -0.2015 H       1  UNL1        0.0618
     17 H          -4.6438   -0.2704    0.2120 H       1  UNL1        0.0618
     18 H          -3.3465    1.8006    0.4770 H       1  UNL1        0.0624
     19 H          -1.2263    2.9797    0.5518 H       1  UNL1        0.0624
     20 H           1.2033    3.0100    0.4228 H       1  UNL1        0.0624
     21 H           3.3324    1.8838    0.1225 H       1  UNL1        0.0624
     22 H           4.6454   -0.1546   -0.2811 H       1  UNL1        0.0618
     23 H           3.4941   -2.3322   -0.5715 H       1  UNL1        0.0618
     24 H           1.0680   -2.4704   -0.4603 H       1  UNL1        0.0624
@<TRIPOS>BOND
     1     1     2   ar
     2     2     3   ar
     3     3     4   ar
     4     4     5   ar
     5     5     6   ar
     6     2     7   ar
     7     7     8   ar
     8     8     9   ar
     9     1    10   ar
    10    10    11   ar
    11    11    12   ar
    12    12    13   ar
    13    13    14   ar
    14    14     1   ar
    15     7     6   ar
    16    10     9   ar
    17     3    15    1
    18     4    16    1
    19     5    17    1
    20     6    18    1
    21     8    19    1
    22     9    20    1
    23    11    21    1
    24    12    22    1
    25    13    23    1
    26    14    24    1
