@<TRIPOS>MOLECULE
*****
 34 37 0 0 0
SMALL
GASTEIGER

@<TRIPOS>ATOM
      1 C           1.2445   -1.6077   -0.6250 C.ar    1  UNL1        0.0000
      2 C           0.1026   -2.5202   -0.8317 C.ar    1  UNL1        0.0000
      3 C          -1.1258   -2.2038   -0.4592 C.ar    1  UNL1        0.0000
      4 B          -1.3827   -0.8220    0.2215 B       1  UNL1        0.0000
      5 C          -2.7875   -0.1469    0.2044 C.ar    1  UNL1        0.0000
      6 C          -3.5012   -0.1307    1.3832 C.ar    1  UNL1        0.0000
      7 C          -4.7505    0.4304    1.5111 C.ar    1  UNL1        0.0000
      8 C          -5.2918    1.0031    0.3686 C.ar    1  UNL1        0.0000
      9 C          -4.5847    0.9942   -0.8252 C.ar    1  UNL1        0.0000
     10 C          -3.3314    0.4247   -0.9294 C.ar    1  UNL1        0.0000
     11 N          -0.1717    0.0891    0.4147 N.ar    1  UNL1        0.0000
     12 C           1.0950   -0.3725   -0.0314 C.ar    1  UNL1        0.0000
     13 C           2.2230    0.4015    0.1143 C.ar    1  UNL1        0.0000
     14 C           2.1470    1.6447    0.6981 C.ar    1  UNL1        0.0000
     15 C           3.3094    2.3767    0.8182 C.ar    1  UNL1        0.0000
     16 C           4.5120    1.9139    0.3834 C.ar    1  UNL1        0.0000
     17 C           4.6154    0.6801   -0.2011 C.ar    1  UNL1        0.0000
     18 C           3.4401   -0.0685   -0.3264 C.ar    1  UNL1        0.0000
     19 C           3.5990   -1.3097   -0.9246 C.ar    1  UNL1        0.0000
     20 C           2.4683   -2.0856   -1.0707 C.ar    1  UNL1        0.0000
     21 H           0.2305   -3.4862   -1.2980 H       1  UNL1        0.0000
     22 H          -1.9647   -2.8597   -0.6044 H       1  UNL1        0.0000
     23 H          -3.0710   -0.5840    2.2846 H       1  UNL1        0.0000
     24 H          -5.2733    0.4178    2.4637 H       1  UNL1        0.0000
     25 H          -6.2732    1.4437    0.4699 H       1  UNL1        0.0000
     26 H          -5.0451    1.4520   -1.6902 H       1  UNL1        0.0000
     27 H          -2.7581    0.4045   -1.8503 H       1  UNL1        0.0000
     28 H          -0.3389    0.9967    0.8620 H       1  UNL1        0.0000
     29 H           1.2486    2.0967    1.0716 H       1  UNL1        0.0000
     30 H           3.2808    3.3582    1.2732 H       1  UNL1        0.0000
     31 H           5.4104    2.4975    0.4844 H       1  UNL1        0.0000
     32 H           5.5648    0.2948   -0.5535 H       1  UNL1        0.0000
     33 H           4.5696   -1.6692   -1.2691 H       1  UNL1        0.0000
     34 H           2.5907   -3.0537   -1.5369 H       1  UNL1        0.0000
@<TRIPOS>BOND
     1     1     2   ar
     2     2     3   ar
     3     3     4   ar
     4     4     5    1
     5     5     6   ar
     6     6     7   ar
     7     7     8   ar
     8     8     9   ar
     9     9    10   ar
    10     4    11   ar
    11     1    12   ar
    12    12    13   ar
    13    13    14   ar
    14    14    15   ar
    15    15    16   ar
    16    16    17   ar
    17    13    18   ar
    18    18    19   ar
    19    19    20   ar
    20    20     1   ar
    21    10     5   ar
    22    12    11   ar
    23    18    17   ar
    24     2    21    1
    25     3    22    1
    26     6    23    1
    27     7    24    1
    28     8    25    1
    29     9    26    1
    30    10    27    1
    31    11    28    1
    32    14    29    1
    33    15    30    1
    34    16    31    1
    35    17    32    1
    36    19    33    1
    37    20    34    1
