@<TRIPOS>MOLECULE
*****
 45 50 0 0 0
SMALL
GASTEIGER

@<TRIPOS>ATOM
      1 SI         -2.0943    0.7231   -0.5180 Si      1  UNL1        0.0000
      2 C          -0.8314   -0.4829    0.1709 C.2     1  UNL1        0.0000
      3 C          -1.5214   -1.5444    0.6568 C.2     1  UNL1        0.0000
      4 C          -2.9761   -1.5186    0.5464 C.2     1  UNL1        0.0000
      5 C          -3.5299   -0.4318   -0.0354 C.2     1  UNL1        0.0000
      6 C          -4.9500   -0.1155   -0.2889 C.ar    1  UNL1        0.0000
      7 C          -5.3992    1.0791   -0.9180 C.ar    1  UNL1        0.0000
      8 C          -6.7552    1.4047   -1.1719 C.ar    1  UNL1        0.0000
      9 C          -7.8184    0.5672   -0.8231 C.ar    1  UNL1        0.0000
     10 C          -7.4652   -0.6449   -0.1917 C.ar    1  UNL1        0.0000
     11 N          -8.3421   -1.5753    0.2161 N.ar    1  UNL1        0.0000
     12 S          -7.4503   -2.7967    0.8882 S.2     1  UNL1        0.0000
     13 N          -5.9195   -2.2045    0.6938 N.ar    1  UNL1        0.0000
     14 C          -6.0133   -1.0061    0.0865 C.ar    1  UNL1        0.0000
     15 C           0.6341   -0.3368    0.1959 C.ar    1  UNL1        0.0000
     16 C           1.4813   -1.3347    0.7524 C.ar    1  UNL1        0.0000
     17 C           2.9177   -1.2842    0.8233 C.ar    1  UNL1        0.0000
     18 C           3.7402   -0.2260    0.3483 C.ar    1  UNL1        0.0000
     19 C           5.2190   -0.2087    0.4387 C.ar    1  UNL1        0.0000
     20 C           5.9571   -1.2515    1.0107 C.ar    1  UNL1        0.0000
     21 C           7.3511   -1.1813    1.0689 C.ar    1  UNL1        0.0000
     22 C           7.9980   -0.0706    0.5556 C.ar    1  UNL1        0.0000
     23 C           7.2169    0.9236    0.0049 C.ar    1  UNL1        0.0000
     24 N           5.8672    0.8731   -0.0601 N.ar    1  UNL1        0.0000
     25 C           2.8997    0.7641   -0.2040 C.ar    1  UNL1        0.0000
     26 C           3.2968    1.9526   -0.7727 C.ar    1  UNL1        0.0000
     27 N           2.1796    2.6255   -1.1846 N.ar    1  UNL1        0.0000
     28 C           1.0530    1.8920   -0.8925 C.ar    1  UNL1        0.0000
     29 C           1.4401    0.7202   -0.2797 C.ar    1  UNL1        0.0000
     30 H          -2.0211    0.8955   -1.9927 H       1  UNL1        0.0000
     31 H          -2.1698    2.0077    0.2264 H       1  UNL1        0.0000
     32 H          -1.0801   -2.4162    1.1232 H       1  UNL1        0.0000
     33 H          -3.5250   -2.3671    0.9348 H       1  UNL1        0.0000
     34 H          -4.6758    1.8261   -1.2442 H       1  UNL1        0.0000
     35 H          -6.9786    2.3529   -1.6623 H       1  UNL1        0.0000
     36 H          -8.8515    0.8251   -1.0215 H       1  UNL1        0.0000
     37 H           1.0370   -2.2359    1.1740 H       1  UNL1        0.0000
     38 H           3.3792   -2.1535    1.2897 H       1  UNL1        0.0000
     39 H           5.4788   -2.1327    1.4204 H       1  UNL1        0.0000
     40 H           7.9204   -1.9925    1.5136 H       1  UNL1        0.0000
     41 H           9.0774    0.0183    0.5833 H       1  UNL1        0.0000
     42 H           7.6640    1.8201   -0.4144 H       1  UNL1        0.0000
     43 H           4.2705    2.3944   -0.9288 H       1  UNL1        0.0000
     44 H           2.1846    3.5300   -1.6373 H       1  UNL1        0.0000
     45 H           0.1042    2.3170   -1.1689 H       1  UNL1        0.0000
@<TRIPOS>BOND
     1     1     2    1
     2     2     3    2
     3     3     4    1
     4     4     5    2
     5     5     6    1
     6     6     7   ar
     7     7     8   ar
     8     8     9   ar
     9     9    10   ar
    10    10    11   ar
    11    11    12   ar
    12    12    13   ar
    13    13    14   ar
    14     2    15    1
    15    15    16   ar
    16    16    17   ar
    17    17    18   ar
    18    18    19    1
    19    19    20   ar
    20    20    21   ar
    21    21    22   ar
    22    22    23   ar
    23    23    24   ar
    24    18    25   ar
    25    25    26   ar
    26    26    27   ar
    27    27    28   ar
    28    28    29   ar
    29     5     1    1
    30    14     6   ar
    31    29    15   ar
    32    14    10   ar
    33    24    19   ar
    34    29    25   ar
    35     1    30    1
    36     1    31    1
    37     3    32    1
    38     4    33    1
    39     7    34    1
    40     8    35    1
    41     9    36    1
    42    16    37    1
    43    17    38    1
    44    20    39    1
    45    21    40    1
    46    22    41    1
    47    23    42    1
    48    26    43    1
    49    27    44    1
    50    28    45    1
