@<TRIPOS>MOLECULE
*****
 24 26 0 0 0
SMALL
GASTEIGER

@<TRIPOS>ATOM
      1 C           1.5393   -0.6309    0.0394 C.ar    1  UNL1       -0.0173
      2 C           2.9290   -0.4306    0.1025 C.ar    1  UNL1       -0.0540
      3 C           3.4685    0.8510    0.1700 C.ar    1  UNL1       -0.0612
      4 C           2.6224    1.9490    0.1752 C.ar    1  UNL1       -0.0611
      5 C           1.2380    1.7626    0.1128 C.ar    1  UNL1       -0.0534
      6 C           0.6493    0.4742    0.0431 C.ar    1  UNL1       -0.0102
      7 C          -0.7702    0.2337   -0.0226 C.ar    1  UNL1       -0.0102
      8 C          -1.7534    1.2558   -0.0257 C.ar    1  UNL1       -0.0534
      9 C          -3.1218    0.9757   -0.0907 C.ar    1  UNL1       -0.0611
     10 C          -3.5559   -0.3392   -0.1552 C.ar    1  UNL1       -0.0612
     11 C          -2.6213   -1.3710   -0.1545 C.ar    1  UNL1       -0.0540
     12 C          -1.2433   -1.1023   -0.0894 C.ar    1  UNL1       -0.0173
     13 C          -0.3357   -2.1645   -0.0909 C.ar    1  UNL1       -0.0534
     14 C           1.0353   -1.9322   -0.0274 C.ar    1  UNL1       -0.0534
     15 H           3.6080   -1.2810    0.0994 H       1  UNL1        0.0624
     16 H           4.5451    0.9884    0.2182 H       1  UNL1        0.0618
     17 H           3.0325    2.9540    0.2276 H       1  UNL1        0.0618
     18 H           0.6207    2.6562    0.1199 H       1  UNL1        0.0624
     19 H          -1.4674    2.3025    0.0232 H       1  UNL1        0.0624
     20 H          -3.8425    1.7892   -0.0907 H       1  UNL1        0.0618
     21 H          -4.6176   -0.5640   -0.2059 H       1  UNL1        0.0618
     22 H          -2.9799   -2.3971   -0.2056 H       1  UNL1        0.0624
     23 H          -0.6877   -3.1927   -0.1418 H       1  UNL1        0.0624
     24 H           1.7088   -2.7867   -0.0308 H       1  UNL1        0.0624
@<TRIPOS>BOND
     1     1     2   ar
     2     2     3   ar
     3     3     4   ar
     4     4     5   ar
     5     1     6   ar
     6     6     7   ar
     7     7     8   ar
     8     8     9   ar
     9     9    10   ar
    10    10    11   ar
    11     7    12   ar
    12    12    13   ar
    13    13    14   ar
    14    14     1   ar
    15     6     5   ar
    16    12    11   ar
    17     2    15    1
    18     3    16    1
    19     4    17    1
    20     5    18    1
    21     8    19    1
    22     9    20    1
    23    10    21    1
    24    11    22    1
    25    13    23    1
    26    14    24    1
