@<TRIPOS>MOLECULE
*****
 24 26 0 0 0
SMALL
GASTEIGER

@<TRIPOS>ATOM
      1 C           1.2644   -0.2236   -0.5948 C.ar    1  UNL1        0.0000
      2 C           2.4552   -0.4677   -1.2310 C.ar    1  UNL1        0.0000
      3 C           3.5714    0.2046   -0.7329 C.ar    1  UNL1        0.0000
      4 C           3.4915    1.0679    0.3383 C.ar    1  UNL1        0.0000
      5 C           2.2761    1.2826    0.9457 C.ar    1  UNL1        0.0000
      6 C           1.1490    0.6370    0.4833 C.ar    1  UNL1        0.0000
      7 C          -0.0744    0.8382    1.0766 C.ar    1  UNL1        0.0000
      8 C          -1.1944    0.1853    0.6032 C.ar    1  UNL1        0.0000
      9 C          -2.4916    0.4215    1.2601 C.ar    1  UNL1        0.0000
     10 C          -3.6029   -0.1729    0.8552 C.ar    1  UNL1        0.0000
     11 B          -3.6225   -1.1740   -0.3550 B       1  UNL1        0.0000
     12 N          -2.2368   -1.3755   -0.9950 N.ar    1  UNL1        0.0000
     13 C          -1.1139   -0.6782   -0.4684 C.ar    1  UNL1        0.0000
     14 C           0.1191   -0.8717   -1.0552 C.ar    1  UNL1        0.0000
     15 H           2.5560   -1.1348   -2.0700 H       1  UNL1        0.0000
     16 H           4.5588    0.0730   -1.1744 H       1  UNL1        0.0000
     17 H           4.3750    1.5689    0.6947 H       1  UNL1        0.0000
     18 H           2.2466    1.9747    1.7947 H       1  UNL1        0.0000
     19 H          -0.1044    1.5202    1.9134 H       1  UNL1        0.0000
     20 H          -2.5250    1.1139    2.1105 H       1  UNL1        0.0000
     21 H          -4.5411    0.0245    1.3625 H       1  UNL1        0.0000
     22 H          -4.6081   -1.2315   -1.0412 H       1  UNL1        0.0000
     23 H          -2.1754   -2.0335   -1.8117 H       1  UNL1        0.0000
     24 H           0.2276   -1.5489   -1.9086 H       1  UNL1        0.0000
@<TRIPOS>BOND
     1     1     2   ar
     2     2     3   ar
     3     3     4   ar
     4     4     5   ar
     5     1     6   ar
     6     6     7   ar
     7     7     8   ar
     8     8     9   ar
     9     9    10   ar
    10    10    11   ar
    11    11    12   ar
    12     8    13   ar
    13    13    14   ar
    14    14     1   ar
    15     6     5   ar
    16    13    12   ar
    17     2    15    1
    18     3    16    1
    19     4    17    1
    20     5    18    1
    21     7    19    1
    22     9    20    1
    23    10    21    1
    24    11    22    1
    25    12    23    1
    26    14    24    1
