@<TRIPOS>MOLECULE
*****
 33 37 0 0 0
SMALL
GASTEIGER

@<TRIPOS>ATOM
      1 C          -3.0361    0.1388    0.2714 C.ar    1  UNL1        0.0095
      2 C          -4.4101    0.1634    0.3696 C.ar    1  UNL1       -0.0519
      3 C          -5.1215   -0.8038   -0.3515 C.ar    1  UNL1       -0.0611
      4 C          -4.4620   -1.7679   -1.1484 C.ar    1  UNL1       -0.0611
      5 C          -3.0673   -1.7987   -1.2523 C.ar    1  UNL1       -0.0505
      6 C          -2.3663   -0.8490   -0.5445 C.ar    1  UNL1        0.0269
      7 C          -0.9402   -0.6130   -0.4409 C.ar    1  UNL1        0.1470
      8 N           0.2349   -1.0370   -0.8317 N.ar    1  UNL1       -0.2266
      9 C           1.1480   -0.1459   -0.2044 C.ar    1  UNL1        0.0971
     10 C           2.5855   -0.2731   -0.3801 C.ar    1  UNL1        0.0024
     11 C           3.4378    0.8385   -0.3616 C.ar    1  UNL1       -0.0525
     12 C           4.8160    0.6798   -0.5360 C.ar    1  UNL1       -0.0611
     13 C           5.3537   -0.5900   -0.7374 C.ar    1  UNL1       -0.0617
     14 C           4.5150   -1.7017   -0.7726 C.ar    1  UNL1       -0.0611
     15 C           3.1380   -1.5427   -0.5991 C.ar    1  UNL1       -0.0525
     16 C           0.4814    0.7905    0.5837 C.ar    1  UNL1        0.0745
     17 N          -0.8075    0.4447    0.3813 N.ar    1  UNL1       -0.2915
     18 C          -1.9774    0.9764    0.8732 C.ar    1  UNL1        0.0564
     19 C          -1.8516    2.0234    1.7034 C.ar    1  UNL1       -0.0371
     20 C          -0.4730    2.4775    2.0031 C.ar    1  UNL1       -0.0578
     21 C           0.6375    1.8922    1.4758 C.ar    1  UNL1       -0.0356
     22 H          -4.9256    0.8976    0.9778 H       1  UNL1        0.0624
     23 H          -6.2090   -0.8164   -0.2993 H       1  UNL1        0.0618
     24 H          -5.0537   -2.5017   -1.6928 H       1  UNL1        0.0618
     25 H          -2.5587   -2.5367   -1.8630 H       1  UNL1        0.0625
     26 H           3.0411    1.8415   -0.2352 H       1  UNL1        0.0624
     27 H           5.4678    1.5494   -0.5231 H       1  UNL1        0.0618
     28 H           6.4247   -0.7126   -0.8760 H       1  UNL1        0.0618
     29 H           4.9280   -2.6930   -0.9389 H       1  UNL1        0.0618
     30 H           2.4909   -2.4175   -0.6349 H       1  UNL1        0.0624
     31 H          -2.6948    2.5274    2.1587 H       1  UNL1        0.0638
     32 H          -0.3750    3.3145    2.6895 H       1  UNL1        0.0619
     33 H           1.6297    2.2453    1.7360 H       1  UNL1        0.0639
@<TRIPOS>BOND
     1     1     2   ar
     2     2     3   ar
     3     3     4   ar
     4     4     5   ar
     5     1     6   ar
     6     6     7   ar
     7     7     8   ar
     8     8     9   ar
     9     9    10    1
    10    10    11   ar
    11    11    12   ar
    12    12    13   ar
    13    13    14   ar
    14    14    15   ar
    15     9    16   ar
    16    16    17   ar
    17    17    18   ar
    18    18    19   ar
    19    19    20   ar
    20    20    21   ar
    21    18     1   ar
    22     6     5   ar
    23    17     7   ar
    24    15    10   ar
    25    21    16   ar
    26     2    22    1
    27     3    23    1
    28     4    24    1
    29     5    25    1
    30    11    26    1
    31    12    27    1
    32    13    28    1
    33    14    29    1
    34    15    30    1
    35    19    31    1
    36    20    32    1
    37    21    33    1
