@<TRIPOS>MOLECULE
*****
 30 34 0 0 0
SMALL
GASTEIGER

@<TRIPOS>ATOM
      1 C           2.6383    0.0909    0.0954 C.ar    1  UNL1        0.0095
      2 C           4.0157    0.0650    0.1109 C.ar    1  UNL1       -0.0519
      3 C           4.6397   -1.1055   -0.3385 C.ar    1  UNL1       -0.0611
      4 C           3.8919   -2.2173   -0.7904 C.ar    1  UNL1       -0.0611
      5 C           2.4932   -2.1977   -0.8088 C.ar    1  UNL1       -0.0505
      6 C           1.8780   -1.0483   -0.3675 C.ar    1  UNL1        0.0269
      7 C           0.4721   -0.7127   -0.2615 C.ar    1  UNL1        0.1470
      8 N          -0.7416   -1.1609   -0.4607 N.ar    1  UNL1       -0.2260
      9 C          -1.5710   -0.0837   -0.0519 C.ar    1  UNL1        0.1037
     10 C          -3.1305   -0.1876   -0.1219 C.ar    1  UNL1        0.0396
     11 C          -3.7765   -1.3170   -0.5788 C.ar    1  UNL1       -0.0454
     12 C          -5.1949   -1.1760   -0.5498 C.ar    1  UNL1       -0.0541
     13 C          -5.5772    0.0576   -0.0710 C.ar    1  UNL1       -0.0237
     14 S          -4.2297    1.0304    0.3374 S.2     1  UNL1       -0.0951
     15 C          -0.8225    1.0022    0.3898 C.ar    1  UNL1        0.0750
     16 N           0.4354    0.5399    0.2312 N.ar    1  UNL1       -0.2915
     17 C           1.6553    1.1240    0.4840 C.ar    1  UNL1        0.0564
     18 C           1.6260    2.3725    0.9753 C.ar    1  UNL1       -0.0371
     19 C           0.2892    2.9759    1.1880 C.ar    1  UNL1       -0.0578
     20 C          -0.8758    2.3280    0.9111 C.ar    1  UNL1       -0.0356
     21 H           4.5985    0.9115    0.4553 H       1  UNL1        0.0624
     22 H           5.7269   -1.1640   -0.3412 H       1  UNL1        0.0618
     23 H           4.4176   -3.1076   -1.1313 H       1  UNL1        0.0618
     24 H           1.9176   -3.0492   -1.1549 H       1  UNL1        0.0625
     25 H          -3.2514   -2.2026   -0.9179 H       1  UNL1        0.0629
     26 H          -5.8951   -1.9401   -0.8638 H       1  UNL1        0.0623
     27 H          -6.5816    0.4362    0.0594 H       1  UNL1        0.0693
     28 H           2.5163    2.9399    1.2154 H       1  UNL1        0.0638
     29 H           0.2691    3.9872    1.5860 H       1  UNL1        0.0619
     30 H          -1.8328    2.8091    1.0827 H       1  UNL1        0.0639
@<TRIPOS>BOND
     1     1     2   ar
     2     2     3   ar
     3     3     4   ar
     4     4     5   ar
     5     1     6   ar
     6     6     7   ar
     7     7     8   ar
     8     8     9   ar
     9     9    10    1
    10    10    11   ar
    11    11    12   ar
    12    12    13   ar
    13    13    14   ar
    14     9    15   ar
    15    15    16   ar
    16    16    17   ar
    17    17    18   ar
    18    18    19   ar
    19    19    20   ar
    20    17     1   ar
    21     6     5   ar
    22    16     7   ar
    23    14    10   ar
    24    20    15   ar
    25     2    21    1
    26     3    22    1
    27     4    23    1
    28     5    24    1
    29    11    25    1
    30    12    26    1
    31    13    27    1
    32    18    28    1
    33    19    29    1
    34    20    30    1
