@<TRIPOS>MOLECULE
*****
 34 35 0 0 0
SMALL
GASTEIGER

@<TRIPOS>ATOM
      1 C           4.3672    0.2361    0.4448 C.ar    1  UNL1       -0.0250
      2 C           2.9734   -0.1901    0.6803 C.2     1  UNL1       -0.0546
      3 C           1.8805    0.2591    0.0417 C.2     1  UNL1       -0.0612
      4 C           0.5483   -0.2219    0.3442 C.2     1  UNL1       -0.0617
      5 C          -0.5483    0.2219   -0.2893 C.2     1  UNL1       -0.0617
      6 C          -1.8805   -0.2591    0.0132 C.2     1  UNL1       -0.0612
      7 C          -2.9734    0.1901   -0.6254 C.2     1  UNL1       -0.0546
      8 C          -4.3672   -0.2361   -0.3899 C.ar    1  UNL1       -0.0250
      9 C          -4.7384   -1.1958    0.5619 C.ar    1  UNL1       -0.0546
     10 C          -6.0796   -1.5549    0.7348 C.ar    1  UNL1       -0.0612
     11 C          -7.0701   -0.9597   -0.0414 C.ar    1  UNL1       -0.0617
     12 C          -6.7208   -0.0049   -0.9914 C.ar    1  UNL1       -0.0612
     13 C          -5.3803    0.3531   -1.1633 C.ar    1  UNL1       -0.0546
     14 C           5.3803   -0.3531    1.2182 C.ar    1  UNL1       -0.0546
     15 C           6.7208    0.0049    1.0463 C.ar    1  UNL1       -0.0612
     16 C           7.0700    0.9597    0.0963 C.ar    1  UNL1       -0.0617
     17 C           6.0796    1.5549   -0.6799 C.ar    1  UNL1       -0.0612
     18 C           4.7384    1.1958   -0.5070 C.ar    1  UNL1       -0.0546
     19 H           2.8517   -0.9452    1.4551 H       1  UNL1        0.0623
     20 H           1.9550    1.0115   -0.7376 H       1  UNL1        0.0618
     21 H           0.4582   -0.9763    1.1232 H       1  UNL1        0.0618
     22 H          -0.4582    0.9763   -1.0683 H       1  UNL1        0.0618
     23 H          -1.9550   -1.0115    0.7924 H       1  UNL1        0.0618
     24 H          -2.8517    0.9452   -1.4003 H       1  UNL1        0.0623
     25 H          -3.9983   -1.6844    1.1880 H       1  UNL1        0.0623
     26 H          -6.3478   -2.3012    1.4781 H       1  UNL1        0.0618
     27 H          -8.1113   -1.2396    0.0940 H       1  UNL1        0.0618
     28 H          -7.4895    0.4633   -1.6005 H       1  UNL1        0.0618
     29 H          -5.1375    1.1025   -1.9137 H       1  UNL1        0.0623
     30 H           5.1375   -1.1025    1.9686 H       1  UNL1        0.0623
     31 H           7.4895   -0.4634    1.6554 H       1  UNL1        0.0618
     32 H           8.1113    1.2396   -0.0392 H       1  UNL1        0.0618
     33 H           6.3478    2.3012   -1.4233 H       1  UNL1        0.0618
     34 H           3.9983    1.6844   -1.1331 H       1  UNL1        0.0623
@<TRIPOS>BOND
     1     1     2    1
     2     2     3    2
     3     3     4    1
     4     4     5    2
     5     5     6    1
     6     6     7    2
     7     7     8    1
     8     8     9   ar
     9     9    10   ar
    10    10    11   ar
    11    11    12   ar
    12    12    13   ar
    13     1    14   ar
    14    14    15   ar
    15    15    16   ar
    16    16    17   ar
    17    17    18   ar
    18    18     1   ar
    19    13     8   ar
    20     2    19    1
    21     3    20    1
    22     4    21    1
    23     5    22    1
    24     6    23    1
    25     7    24    1
    26     9    25    1
    27    10    26    1
    28    11    27    1
    29    12    28    1
    30    13    29    1
    31    14    30    1
    32    15    31    1
    33    16    32    1
    34    17    33    1
    35    18    34    1
