@<TRIPOS>MOLECULE
*****
 62 67 0 0 0
SMALL
GASTEIGER

@<TRIPOS>ATOM
      1 C          -9.3792   -0.0163    0.0258 C.ar    1  UNL1       -0.0179
      2 C          -7.9071   -0.0091    0.0014 C.ar    1  UNL1       -0.0178
      3 C          -7.1913    1.1772   -0.2168 C.ar    1  UNL1       -0.0535
      4 C          -5.7910    1.1842   -0.2385 C.ar    1  UNL1       -0.0535
      5 C          -5.0572    0.0046   -0.0453 C.ar    1  UNL1       -0.0178
      6 C          -3.5854    0.0114   -0.0684 C.ar    1  UNL1       -0.0178
      7 C          -2.8696   -0.8599   -0.9024 C.ar    1  UNL1       -0.0535
      8 C          -1.4693   -0.8547   -0.9234 C.ar    1  UNL1       -0.0535
      9 C          -0.7355    0.0203   -0.1091 C.ar    1  UNL1       -0.0178
     10 C           0.7362    0.0223   -0.1278 C.ar    1  UNL1       -0.0178
     11 C           1.4758   -0.1187    1.0555 C.ar    1  UNL1       -0.0535
     12 C           2.8761   -0.1196    1.0380 C.ar    1  UNL1       -0.0535
     13 C           3.5857    0.0202   -0.1635 C.ar    1  UNL1       -0.0178
     14 C           5.0571    0.0162   -0.1816 C.ar    1  UNL1       -0.0178
     15 C           5.7943    0.8951    0.6252 C.ar    1  UNL1       -0.0535
     16 C           7.1947    0.8890    0.6099 C.ar    1  UNL1       -0.0535
     17 C           7.9067    0.0036   -0.2123 C.ar    1  UNL1       -0.0178
     18 C           9.3788   -0.0051   -0.2262 C.ar    1  UNL1       -0.0179
     19 C          10.1134   -0.1389    0.9641 C.ar    1  UNL1       -0.0540
     20 C          11.5109   -0.1492    0.9521 C.ar    1  UNL1       -0.0612
     21 C          12.1986   -0.0248   -0.2524 C.ar    1  UNL1       -0.0617
     22 C          11.4904    0.1097   -1.4437 C.ar    1  UNL1       -0.0612
     23 C          10.0929    0.1189   -1.4299 C.ar    1  UNL1       -0.0540
     24 C           7.1693   -0.8745   -1.0200 C.ar    1  UNL1       -0.0535
     25 C           5.7689   -0.8683   -1.0051 C.ar    1  UNL1       -0.0535
     26 C           2.8465    0.1622   -1.3468 C.ar    1  UNL1       -0.0535
     27 C           1.4460    0.1633   -1.3292 C.ar    1  UNL1       -0.0535
     28 C          -1.4512    0.8916    0.7248 C.ar    1  UNL1       -0.0535
     29 C          -2.8516    0.8881    0.7440 C.ar    1  UNL1       -0.0535
     30 C          -5.7730   -1.1819    0.1715 C.ar    1  UNL1       -0.0535
     31 C          -7.1733   -1.1885    0.1956 C.ar    1  UNL1       -0.0535
     32 C         -10.1240    0.5243   -1.0358 C.ar    1  UNL1       -0.0540
     33 C         -11.5215    0.5171   -1.0138 C.ar    1  UNL1       -0.0612
     34 C         -12.1988   -0.0305    0.0726 C.ar    1  UNL1       -0.0617
     35 C         -11.4804   -0.5712    1.1357 C.ar    1  UNL1       -0.0612
     36 C         -10.0830   -0.5642    1.1114 C.ar    1  UNL1       -0.0540
     37 H          -7.7219    2.1161   -0.3630 H       1  UNL1        0.0624
     38 H          -5.2753    2.1254   -0.4189 H       1  UNL1        0.0624
     39 H          -3.3999   -1.5502   -1.5556 H       1  UNL1        0.0624
     40 H          -0.9533   -1.5535   -1.5789 H       1  UNL1        0.0624
     41 H           0.9644   -0.2462    2.0077 H       1  UNL1        0.0624
     42 H           3.4113   -0.2475    1.9769 H       1  UNL1        0.0624
     43 H           5.2808    1.6080    1.2675 H       1  UNL1        0.0624
     44 H           7.7284    1.5975    1.2404 H       1  UNL1        0.0624
     45 H           9.5959   -0.2496    1.9150 H       1  UNL1        0.0624
     46 H          12.0600   -0.2577    1.8838 H       1  UNL1        0.0618
     47 H          13.2852   -0.0327   -0.2625 H       1  UNL1        0.0618
     48 H          12.0236    0.2100   -2.3854 H       1  UNL1        0.0618
     49 H           9.5594    0.2365   -2.3710 H       1  UNL1        0.0624
     50 H           7.6830   -1.5881   -1.6614 H       1  UNL1        0.0624
     51 H           5.2355   -1.5771   -1.6354 H       1  UNL1        0.0624
     52 H           3.3583    0.2886   -2.2988 H       1  UNL1        0.0624
     53 H           0.9110    0.2908   -2.2683 H       1  UNL1        0.0624
     54 H          -0.9209    1.5932    1.3659 H       1  UNL1        0.0624
     55 H          -3.3673    1.5746    1.4126 H       1  UNL1        0.0624
     56 H          -5.2427   -2.1182    0.3350 H       1  UNL1        0.0624
     57 H          -7.6897   -2.1324    0.3591 H       1  UNL1        0.0624
     58 H          -9.6150    0.9466   -1.9000 H       1  UNL1        0.0624
     59 H         -12.0786    0.9370   -1.8471 H       1  UNL1        0.0618
     60 H         -13.2854   -0.0362    0.0906 H       1  UNL1        0.0618
     61 H         -12.0054   -0.9970    1.9868 H       1  UNL1        0.0618
     62 H          -9.5413   -0.9817    1.9579 H       1  UNL1        0.0624
@<TRIPOS>BOND
     1     1     2    1
     2     2     3   ar
     3     3     4   ar
     4     4     5   ar
     5     5     6    1
     6     6     7   ar
     7     7     8   ar
     8     8     9   ar
     9     9    10    1
    10    10    11   ar
    11    11    12   ar
    12    12    13   ar
    13    13    14    1
    14    14    15   ar
    15    15    16   ar
    16    16    17   ar
    17    17    18    1
    18    18    19   ar
    19    19    20   ar
    20    20    21   ar
    21    21    22   ar
    22    22    23   ar
    23    17    24   ar
    24    24    25   ar
    25    13    26   ar
    26    26    27   ar
    27     9    28   ar
    28    28    29   ar
    29     5    30   ar
    30    30    31   ar
    31     1    32   ar
    32    32    33   ar
    33    33    34   ar
    34    34    35   ar
    35    35    36   ar
    36    36     1   ar
    37    31     2   ar
    38    29     6   ar
    39    27    10   ar
    40    25    14   ar
    41    23    18   ar
    42     3    37    1
    43     4    38    1
    44     7    39    1
    45     8    40    1
    46    11    41    1
    47    12    42    1
    48    15    43    1
    49    16    44    1
    50    19    45    1
    51    20    46    1
    52    21    47    1
    53    22    48    1
    54    23    49    1
    55    24    50    1
    56    25    51    1
    57    26    52    1
    58    27    53    1
    59    28    54    1
    60    29    55    1
    61    30    56    1
    62    31    57    1
    63    32    58    1
    64    33    59    1
    65    34    60    1
    66    35    61    1
    67    36    62    1
