@<TRIPOS>MOLECULE
*****
 22 23 0 0 0
SMALL
GASTEIGER

@<TRIPOS>ATOM
      1 C          -0.7102    0.0050    0.1857 C.ar    1  UNL1       -0.0179
      2 C           0.7102    0.1162   -0.1857 C.ar    1  UNL1       -0.0179
      3 C           1.5821    0.9548    0.5288 C.ar    1  UNL1       -0.0540
      4 C           2.9304    1.0615    0.1766 C.ar    1  UNL1       -0.0612
      5 C           3.4305    0.3292   -0.8970 C.ar    1  UNL1       -0.0617
      6 C           2.5839   -0.5084   -1.6186 C.ar    1  UNL1       -0.0612
      7 C           1.2356   -0.6129   -1.2656 C.ar    1  UNL1       -0.0540
      8 C          -1.0922   -0.3217    1.4977 C.ar    1  UNL1       -0.0540
      9 C          -2.4403   -0.4281    1.8510 C.ar    1  UNL1       -0.0612
     10 C          -3.4305   -0.2080    0.8970 C.ar    1  UNL1       -0.0617
     11 C          -3.0740    0.1175   -0.4091 C.ar    1  UNL1       -0.0612
     12 C          -1.7254    0.2223   -0.7609 C.ar    1  UNL1       -0.0540
     13 H           1.2090    1.5444    1.3639 H       1  UNL1        0.0624
     14 H           3.5872    1.7188    0.7403 H       1  UNL1        0.0618
     15 H           4.4788    0.4113   -1.1712 H       1  UNL1        0.0618
     16 H           2.9710   -1.0840   -2.4552 H       1  UNL1        0.0618
     17 H           0.5937   -1.2820   -1.8353 H       1  UNL1        0.0624
     18 H          -0.3341   -0.5089    2.2555 H       1  UNL1        0.0624
     19 H          -2.7144   -0.6855    2.8707 H       1  UNL1        0.0618
     20 H          -4.4788   -0.2901    1.1712 H       1  UNL1        0.0618
     21 H          -3.8439    0.2932   -1.1558 H       1  UNL1        0.0618
     22 H          -1.4686    0.4890   -1.7841 H       1  UNL1        0.0624
@<TRIPOS>BOND
     1     1     2    1
     2     2     3   ar
     3     3     4   ar
     4     4     5   ar
     5     5     6   ar
     6     6     7   ar
     7     1     8   ar
     8     8     9   ar
     9     9    10   ar
    10    10    11   ar
    11    11    12   ar
    12    12     1   ar
    13     7     2   ar
    14     3    13    1
    15     4    14    1
    16     5    15    1
    17     6    16    1
    18     7    17    1
    19     8    18    1
    20     9    19    1
    21    10    20    1
    22    11    21    1
    23    12    22    1
