@<TRIPOS>MOLECULE
*****
 33 37 0 0 0
SMALL
GASTEIGER

@<TRIPOS>ATOM
      1 C          -1.3986   -0.5645   -0.1499 C.ar    1  UNL1       -0.0172
      2 C          -2.8319   -0.2321   -0.0778 C.ar    1  UNL1       -0.0179
      3 C          -3.3641    0.4366    1.0370 C.ar    1  UNL1       -0.0540
      4 C          -4.7237    0.7527    1.1054 C.ar    1  UNL1       -0.0612
      5 C          -5.5737    0.4057    0.0583 C.ar    1  UNL1       -0.0617
      6 C          -5.0659   -0.2573   -1.0560 C.ar    1  UNL1       -0.0612
      7 C          -3.7064   -0.5738   -1.1227 C.ar    1  UNL1       -0.0540
      8 C          -0.4269    0.4489   -0.0185 C.ar    1  UNL1       -0.0442
      9 C           0.9032    0.0914   -0.0943 C.ar    1  UNL1        0.0101
     10 C           1.2946   -1.2833   -0.3016 C.ar    1  UNL1        0.0269
     11 C           2.7430   -1.3311   -0.3352 C.ar    1  UNL1        0.1463
     12 N           3.7793   -2.1229   -0.4695 N.ar    1  UNL1       -0.2349
     13 C           4.8870   -1.2483   -0.3639 C.ar    1  UNL1        0.0538
     14 C           4.4880    0.0645   -0.1665 C.ar    1  UNL1        0.0666
     15 N           3.1459   -0.0582   -0.1586 N.ar    1  UNL1       -0.2921
     16 C           2.1518    0.8784   -0.0045 C.ar    1  UNL1        0.0564
     17 C           2.5568    2.1466    0.1706 C.ar    1  UNL1       -0.0371
     18 C           4.0216    2.3888    0.1777 C.ar    1  UNL1       -0.0578
     19 C           4.9437    1.3992    0.0175 C.ar    1  UNL1       -0.0362
     20 C           0.3630   -2.2851   -0.4310 C.ar    1  UNL1       -0.0499
     21 C          -0.9860   -1.9136   -0.3536 C.ar    1  UNL1       -0.0533
     22 H          -2.7200    0.7064    1.8715 H       1  UNL1        0.0624
     23 H          -5.1177    1.2666    1.9783 H       1  UNL1        0.0618
     24 H          -6.6312    0.6509    0.1110 H       1  UNL1        0.0618
     25 H          -5.7262   -0.5277   -1.8760 H       1  UNL1        0.0618
     26 H          -3.3286   -1.0833   -2.0070 H       1  UNL1        0.0624
     27 H          -0.7151    1.4851    0.1269 H       1  UNL1        0.0630
     28 H           5.8948   -1.6361   -0.4393 H       1  UNL1        0.0851
     29 H           1.8747    2.9771    0.3026 H       1  UNL1        0.0638
     30 H           4.3433    3.4173    0.3197 H       1  UNL1        0.0619
     31 H           6.0076    1.6122    0.0278 H       1  UNL1        0.0639
     32 H           0.6595   -3.3171   -0.5836 H       1  UNL1        0.0625
     33 H          -1.7418   -2.6941   -0.4427 H       1  UNL1        0.0624
@<TRIPOS>BOND
     1     1     2    1
     2     2     3   ar
     3     3     4   ar
     4     4     5   ar
     5     5     6   ar
     6     6     7   ar
     7     1     8   ar
     8     8     9   ar
     9     9    10   ar
    10    10    11   ar
    11    11    12   ar
    12    12    13   ar
    13    13    14   ar
    14    14    15   ar
    15    15    16   ar
    16    16    17   ar
    17    17    18   ar
    18    18    19   ar
    19    10    20   ar
    20    20    21   ar
    21    21     1   ar
    22     7     2   ar
    23    16     9   ar
    24    15    11   ar
    25    19    14   ar
    26     3    22    1
    27     4    23    1
    28     5    24    1
    29     6    25    1
    30     7    26    1
    31     8    27    1
    32    13    28    1
    33    17    29    1
    34    18    30    1
    35    19    31    1
    36    20    32    1
    37    21    33    1
