@<TRIPOS>MOLECULE
*****
 28 30 0 0 0
SMALL
GASTEIGER

@<TRIPOS>ATOM
      1 C           1.1255    0.8791   -0.0619 C.ar    1  UNL1        0.2278
      2 C           2.4389    0.2432   -0.1306 C.ar    1  UNL1        0.0369
      3 C           3.5943    1.0399   -0.1448 C.ar    1  UNL1       -0.0495
      4 C           4.8642    0.4606   -0.2100 C.ar    1  UNL1       -0.0610
      5 C           4.9952   -0.9252   -0.2619 C.ar    1  UNL1       -0.0617
      6 C           3.8590   -1.7315   -0.2486 C.ar    1  UNL1       -0.0610
      7 C           2.5888   -1.1511   -0.1834 C.ar    1  UNL1       -0.0495
      8 N           0.8226    2.1627   -0.0074 N.ar    1  UNL1       -0.2168
      9 C          -0.5489    2.1748    0.0422 C.ar    1  UNL1        0.0743
     10 C          -1.0447    0.8894    0.0162 C.ar    1  UNL1        0.1556
     11 C          -2.3672    0.2791    0.0427 C.ar    1  UNL1        0.0189
     12 C          -2.5277   -1.1145    0.0011 C.ar    1  UNL1       -0.0510
     13 C          -3.8001   -1.6929    0.0269 C.ar    1  UNL1       -0.0611
     14 C          -4.9320   -0.8852    0.0950 C.ar    1  UNL1       -0.0617
     15 C          -4.7925    0.4996    0.1371 C.ar    1  UNL1       -0.0611
     16 C          -3.5194    1.0774    0.1111 C.ar    1  UNL1       -0.0510
     17 O           0.0358    0.0476   -0.0512 O.2     1  UNL1       -0.4353
     18 H           3.5065    2.1247   -0.1047 H       1  UNL1        0.0625
     19 H           5.7483    1.0929   -0.2201 H       1  UNL1        0.0618
     20 H           5.9827   -1.3767   -0.3126 H       1  UNL1        0.0618
     21 H           3.9595   -2.8132   -0.2891 H       1  UNL1        0.0618
     22 H           1.7161   -1.8005   -0.1743 H       1  UNL1        0.0625
     23 H          -1.0998    3.1029    0.0935 H       1  UNL1        0.0868
     24 H          -1.6597   -1.7682   -0.0523 H       1  UNL1        0.0625
     25 H          -3.9042   -2.7744   -0.0062 H       1  UNL1        0.0618
     26 H          -5.9215   -1.3345    0.1151 H       1  UNL1        0.0618
     27 H          -5.6748    1.1326    0.1902 H       1  UNL1        0.0618
     28 H          -3.4448    2.1615    0.1454 H       1  UNL1        0.0625
@<TRIPOS>BOND
     1     1     2    1
     2     2     3   ar
     3     3     4   ar
     4     4     5   ar
     5     5     6   ar
     6     6     7   ar
     7     1     8   ar
     8     8     9   ar
     9     9    10   ar
    10    10    11    1
    11    11    12   ar
    12    12    13   ar
    13    13    14   ar
    14    14    15   ar
    15    15    16   ar
    16    10    17   ar
    17    17     1   ar
    18     7     2   ar
    19    16    11   ar
    20     3    18    1
    21     4    19    1
    22     5    20    1
    23     6    21    1
    24     7    22    1
    25     9    23    1
    26    12    24    1
    27    13    25    1
    28    14    26    1
    29    15    27    1
    30    16    28    1
