@<TRIPOS>MOLECULE
*****
 35 38 0 0 0
SMALL
GASTEIGER

@<TRIPOS>ATOM
      1 C           1.1254   -1.5436    0.2842 C.ar    1  UNL1        0.1456
      2 C           1.7519   -0.2901   -0.1297 C.ar    1  UNL1        0.0178
      3 C           1.9163    0.7657    0.7751 C.ar    1  UNL1       -0.0511
      4 C           2.5320    1.9520    0.3701 C.ar    1  UNL1       -0.0611
      5 C           3.0030    2.0834   -0.9356 C.ar    1  UNL1       -0.0617
      6 C           2.8697    1.0265   -1.8348 C.ar    1  UNL1       -0.0611
      7 C           2.2535   -0.1594   -1.4310 C.ar    1  UNL1       -0.0511
      8 N           1.8045   -2.6733    0.4191 N.ar    1  UNL1       -0.2349
      9 C           0.9200   -3.6033    0.8801 C.ar    1  UNL1        0.0538
     10 C          -0.3325   -3.0605    1.0079 C.ar    1  UNL1        0.0666
     11 N          -0.2282   -1.7317    0.5834 N.ar    1  UNL1       -0.2922
     12 C          -1.3595   -0.8821    0.5170 C.ar    1  UNL1        0.0557
     13 C          -1.3436    0.4954    0.0018 C.ar    1  UNL1       -0.0011
     14 C          -1.4670    1.5836    0.8773 C.ar    1  UNL1       -0.0526
     15 C          -1.4743    2.8891    0.3828 C.ar    1  UNL1       -0.0611
     16 C          -1.3677    3.1159   -0.9884 C.ar    1  UNL1       -0.0617
     17 C          -1.2600    2.0394   -1.8676 C.ar    1  UNL1       -0.0611
     18 C          -1.2546    0.7327   -1.3760 C.ar    1  UNL1       -0.0526
     19 C          -2.5572   -1.3727    0.9085 C.ar    1  UNL1       -0.0371
     20 C          -2.6639   -2.7374    1.3905 C.ar    1  UNL1       -0.0578
     21 C          -1.5952   -3.5507    1.4325 C.ar    1  UNL1       -0.0362
     22 H           1.5664    0.6692    1.7997 H       1  UNL1        0.0625
     23 H           2.6465    2.7711    1.0747 H       1  UNL1        0.0618
     24 H           3.4837    3.0062   -1.2492 H       1  UNL1        0.0618
     25 H           3.2511    1.1215   -2.8478 H       1  UNL1        0.0618
     26 H           2.1674   -0.9868   -2.1317 H       1  UNL1        0.0625
     27 H           1.2327   -4.6164    1.0961 H       1  UNL1        0.0851
     28 H          -1.5491    1.4207    1.9494 H       1  UNL1        0.0624
     29 H          -1.5601    3.7289    1.0672 H       1  UNL1        0.0618
     30 H          -1.3677    4.1325   -1.3730 H       1  UNL1        0.0618
     31 H          -1.1762    2.2165   -2.9365 H       1  UNL1        0.0618
     32 H          -1.1718   -0.0971   -2.0742 H       1  UNL1        0.0624
     33 H          -3.4693   -0.7838    0.8641 H       1  UNL1        0.0638
     34 H          -3.6412   -3.0879    1.7083 H       1  UNL1        0.0619
     35 H          -1.6850   -4.5733    1.7856 H       1  UNL1        0.0639
@<TRIPOS>BOND
     1     1     2    1
     2     2     3   ar
     3     3     4   ar
     4     4     5   ar
     5     5     6   ar
     6     6     7   ar
     7     1     8   ar
     8     8     9   ar
     9     9    10   ar
    10    10    11   ar
    11    11    12   ar
    12    12    13    1
    13    13    14   ar
    14    14    15   ar
    15    15    16   ar
    16    16    17   ar
    17    17    18   ar
    18    12    19   ar
    19    19    20   ar
    20    20    21   ar
    21    11     1   ar
    22     7     2   ar
    23    21    10   ar
    24    18    13   ar
    25     3    22    1
    26     4    23    1
    27     5    24    1
    28     6    25    1
    29     7    26    1
    30     9    27    1
    31    14    28    1
    32    15    29    1
    33    16    30    1
    34    17    31    1
    35    18    32    1
    36    19    33    1
    37    20    34    1
    38    21    35    1
