@<TRIPOS>MOLECULE
*****
 39 44 0 0 0
SMALL
GASTEIGER

@<TRIPOS>ATOM
      1 SI         -1.3998   -0.6452    0.5681 Si      1  UNL1        0.0000
      2 C          -0.0624    0.3928   -0.2968 C.2     1  UNL1        0.0000
      3 C          -0.6444    1.3093   -1.1016 C.2     1  UNL1        0.0000
      4 C          -2.1003    1.2929   -1.1469 C.2     1  UNL1        0.0000
      5 C          -2.7017    0.3676   -0.3702 C.2     1  UNL1        0.0000
      6 C          -4.1343    0.1050   -0.2955 C.ar    1  UNL1        0.0000
      7 C          -4.9293   -0.0533   -1.4554 C.ar    1  UNL1        0.0000
      8 C          -6.3211   -0.3076   -1.4260 C.ar    1  UNL1        0.0000
      9 C          -7.0523   -0.4238   -0.2337 C.ar    1  UNL1        0.0000
     10 C          -6.3193   -0.2691    0.9667 C.ar    1  UNL1        0.0000
     11 N          -6.8331   -0.3404    2.2043 N.ar    1  UNL1        0.0000
     12 S          -5.5731   -0.0778    3.2508 S.2     1  UNL1        0.0000
     13 N          -4.3204    0.1283    2.1860 N.ar    1  UNL1        0.0000
     14 C          -4.8288    0.0019    0.9471 C.ar    1  UNL1        0.0000
     15 C           1.3330    0.2113   -0.1385 C.ar    1  UNL1        0.0000
     16 S           2.5369    0.8148   -1.2457 S.2     1  UNL1        0.0000
     17 C           3.8845    0.1756   -0.3502 C.ar    1  UNL1        0.0000
     18 C           5.2363    0.3631   -0.7950 C.ar    1  UNL1        0.0000
     19 C           6.4230   -0.0595   -0.2137 C.ar    1  UNL1        0.0000
     20 C           7.4860    0.3774   -1.0423 C.ar    1  UNL1        0.0000
     21 C           6.8982    1.0439   -2.0867 C.ar    1  UNL1        0.0000
     22 O           5.5505    1.0418   -1.9494 O.2     1  UNL1        0.0000
     23 C           3.3775   -0.4586    0.7325 C.ar    1  UNL1        0.0000
     24 C           3.7947   -1.1819    1.8673 C.ar    1  UNL1        0.0000
     25 C           2.6174   -1.5180    2.5423 C.ar    1  UNL1        0.0000
     26 O           1.4677   -1.0677    1.9282 O.2     1  UNL1        0.0000
     27 C           2.0039   -0.4382    0.8424 C.ar    1  UNL1        0.0000
     28 H          -1.4192   -0.4193    2.0356 H       1  UNL1        0.0000
     29 H          -1.3919   -2.0633    0.1181 H       1  UNL1        0.0000
     30 H          -0.1085    2.0292   -1.7093 H       1  UNL1        0.0000
     31 H          -2.6286    1.9874   -1.7896 H       1  UNL1        0.0000
     32 H          -4.4493    0.0135   -2.4334 H       1  UNL1        0.0000
     33 H          -6.8487   -0.4190   -2.3739 H       1  UNL1        0.0000
     34 H          -8.1181   -0.6181   -0.2251 H       1  UNL1        0.0000
     35 H           6.5189   -0.6194    0.7045 H       1  UNL1        0.0000
     36 H           8.5458    0.2252   -0.8951 H       1  UNL1        0.0000
     37 H           7.2775    1.5509   -2.9630 H       1  UNL1        0.0000
     38 H           4.7941   -1.4396    2.1843 H       1  UNL1        0.0000
     39 H           2.4387   -2.0655    3.4588 H       1  UNL1        0.0000
@<TRIPOS>BOND
     1     1     2    1
     2     2     3    2
     3     3     4    1
     4     4     5    2
     5     5     6    1
     6     6     7   ar
     7     7     8   ar
     8     8     9   ar
     9     9    10   ar
    10    10    11   ar
    11    11    12   ar
    12    12    13   ar
    13    13    14   ar
    14     2    15    1
    15    15    16   ar
    16    16    17   ar
    17    17    18    1
    18    18    19   ar
    19    19    20   ar
    20    20    21   ar
    21    21    22   ar
    22    17    23   ar
    23    23    24   ar
    24    24    25   ar
    25    25    26   ar
    26    26    27   ar
    27     5     1    1
    28    14     6   ar
    29    27    15   ar
    30    14    10   ar
    31    22    18   ar
    32    27    23   ar
    33     1    28    1
    34     1    29    1
    35     3    30    1
    36     4    31    1
    37     7    32    1
    38     8    33    1
    39     9    34    1
    40    19    35    1
    41    20    36    1
    42    21    37    1
    43    24    38    1
    44    25    39    1
