@<TRIPOS>MOLECULE
*****
 28 31 0 0 0
SMALL
GASTEIGER

@<TRIPOS>ATOM
      1 C          -2.1897    0.2296   -0.0667 C.ar    1  UNL1        0.1116
      2 C          -3.6646    0.3062   -0.1476 C.ar    1  UNL1        0.0101
      3 C          -4.4069   -0.8731    0.0013 C.ar    1  UNL1       -0.0339
      4 C          -5.7887   -0.8181   -0.0718 C.ar    1  UNL1        0.0282
      5 N          -6.4800    0.3194   -0.2812 N.ar    1  UNL1       -0.2632
      6 C          -5.7578    1.4483   -0.4232 C.ar    1  UNL1        0.0282
      7 C          -4.3725    1.4936   -0.3655 C.ar    1  UNL1       -0.0339
      8 N          -1.5331   -0.9022    0.1403 N.ar    1  UNL1       -0.2302
      9 C          -0.1981   -0.6440    0.1624 C.ar    1  UNL1        0.1364
     10 S           1.1917   -1.6489    0.3839 S.2     1  UNL1       -0.0470
     11 C           2.1897   -0.2295    0.2094 C.ar    1  UNL1        0.1116
     12 C           3.6646   -0.3062    0.2902 C.ar    1  UNL1        0.0101
     13 C           4.4069    0.8731    0.1415 C.ar    1  UNL1       -0.0339
     14 C           5.7887    0.8181    0.2146 C.ar    1  UNL1        0.0282
     15 N           6.4800   -0.3194    0.4237 N.ar    1  UNL1       -0.2632
     16 C           5.7578   -1.4483    0.5656 C.ar    1  UNL1        0.0282
     17 C           4.3725   -1.4936    0.5079 C.ar    1  UNL1       -0.0339
     18 N           1.5331    0.9022    0.0024 N.ar    1  UNL1       -0.2302
     19 C           0.1981    0.6440   -0.0198 C.ar    1  UNL1        0.1364
     20 S          -1.1917    1.6489   -0.2412 S.2     1  UNL1       -0.0470
     21 H          -3.9169   -1.8275    0.1728 H       1  UNL1        0.0639
     22 H          -6.3910   -1.7152    0.0397 H       1  UNL1        0.0830
     23 H          -6.3397    2.3506   -0.5909 H       1  UNL1        0.0830
     24 H          -3.8827    2.4523   -0.4919 H       1  UNL1        0.0639
     25 H           3.9169    1.8276   -0.0298 H       1  UNL1        0.0639
     26 H           6.3910    1.7153    0.1032 H       1  UNL1        0.0830
     27 H           6.3398   -2.3507    0.7330 H       1  UNL1        0.0830
     28 H           3.8827   -2.4524    0.6341 H       1  UNL1        0.0639
@<TRIPOS>BOND
     1     1     2    1
     2     2     3   ar
     3     3     4   ar
     4     4     5   ar
     5     5     6   ar
     6     6     7   ar
     7     1     8   ar
     8     8     9   ar
     9     9    10   ar
    10    10    11   ar
    11    11    12    1
    12    12    13   ar
    13    13    14   ar
    14    14    15   ar
    15    15    16   ar
    16    16    17   ar
    17    11    18   ar
    18     9    19   ar
    19    19    20   ar
    20    20     1   ar
    21     7     2   ar
    22    17    12   ar
    23    19    18   ar
    24     3    21    1
    25     4    22    1
    26     6    23    1
    27     7    24    1
    28    13    25    1
    29    14    26    1
    30    16    27    1
    31    17    28    1
