@<TRIPOS>MOLECULE
*****
 35 38 0 0 0
SMALL
GASTEIGER

@<TRIPOS>ATOM
      1 C           2.4823   -0.3151   -0.0210 C.ar    1  UNL1        0.0178
      2 C           1.0496   -0.0142    0.0260 C.ar    1  UNL1        0.1459
      3 N           0.0967   -0.9056   -0.1892 N.ar    1  UNL1       -0.2266
      4 C          -1.0999   -0.2380   -0.0698 C.ar    1  UNL1        0.0971
      5 C          -2.3764   -0.9028   -0.2620 C.ar    1  UNL1        0.0024
      6 C          -2.5042   -1.8585   -1.2789 C.ar    1  UNL1       -0.0525
      7 C          -3.7173   -2.5190   -1.4860 C.ar    1  UNL1       -0.0611
      8 C          -4.8116   -2.2372   -0.6705 C.ar    1  UNL1       -0.0617
      9 C          -4.6915   -1.3021    0.3564 C.ar    1  UNL1       -0.0611
     10 C          -3.4776   -0.6407    0.5633 C.ar    1  UNL1       -0.0525
     11 C          -0.8842    1.0947    0.2144 C.ar    1  UNL1        0.0739
     12 N           0.4990    1.2256    0.3293 N.ar    1  UNL1       -0.2988
     13 C           1.1097    2.4283    0.7048 C.ar    1  UNL1        0.0118
     14 C           0.3551    3.5184    0.9206 C.ar    1  UNL1       -0.0451
     15 C          -1.0828    3.4246    0.7411 C.ar    1  UNL1       -0.0584
     16 C          -1.6772    2.2650    0.4018 C.ar    1  UNL1       -0.0357
     17 C           2.9787   -1.4111    0.6969 C.ar    1  UNL1       -0.0511
     18 C           4.3392   -1.7247    0.6650 C.ar    1  UNL1       -0.0611
     19 C           5.2142   -0.9521   -0.0963 C.ar    1  UNL1       -0.0617
     20 C           4.7291    0.1272   -0.8332 C.ar    1  UNL1       -0.0611
     21 C           3.3681    0.4411   -0.8010 C.ar    1  UNL1       -0.0511
     22 H          -1.6514   -2.0915   -1.9139 H       1  UNL1        0.0624
     23 H          -3.8030   -3.2559   -2.2800 H       1  UNL1        0.0618
     24 H          -5.7544   -2.7541   -0.8287 H       1  UNL1        0.0618
     25 H          -5.5396   -1.0941    1.0033 H       1  UNL1        0.0618
     26 H          -3.3965    0.0624    1.3878 H       1  UNL1        0.0624
     27 H           2.1853    2.4360    0.8220 H       1  UNL1        0.0813
     28 H           0.7881    4.4670    1.2186 H       1  UNL1        0.0632
     29 H          -1.6706    4.3266    0.8837 H       1  UNL1        0.0619
     30 H          -2.7520    2.2183    0.2591 H       1  UNL1        0.0639
     31 H           2.2989   -2.0284    1.2818 H       1  UNL1        0.0625
     32 H           4.7116   -2.5765    1.2280 H       1  UNL1        0.0618
     33 H           6.2722   -1.1999   -0.1258 H       1  UNL1        0.0618
     34 H           5.4087    0.7177   -1.4424 H       1  UNL1        0.0618
     35 H           3.0038    1.2686   -1.4053 H       1  UNL1        0.0625
@<TRIPOS>BOND
     1     1     2    1
     2     2     3   ar
     3     3     4   ar
     4     4     5    1
     5     5     6   ar
     6     6     7   ar
     7     7     8   ar
     8     8     9   ar
     9     9    10   ar
    10     4    11   ar
    11    11    12   ar
    12    12    13   ar
    13    13    14   ar
    14    14    15   ar
    15    15    16   ar
    16     1    17   ar
    17    17    18   ar
    18    18    19   ar
    19    19    20   ar
    20    20    21   ar
    21    21     1   ar
    22    12     2   ar
    23    10     5   ar
    24    16    11   ar
    25     6    22    1
    26     7    23    1
    27     8    24    1
    28     9    25    1
    29    10    26    1
    30    13    27    1
    31    14    28    1
    32    15    29    1
    33    16    30    1
    34    17    31    1
    35    18    32    1
    36    19    33    1
    37    20    34    1
    38    21    35    1
