@<TRIPOS>MOLECULE
*****
 41 44 0 0 0
SMALL
GASTEIGER

@<TRIPOS>ATOM
      1 C           0.2010    2.0744   -0.3105 C.ar    1  UNL1        0.0039
      2 C           0.6295    0.7704    0.1650 C.ar    1  UNL1        0.1165
      3 N           1.6906    0.1421   -0.3594 N.ar    1  UNL1       -0.1468
      4 N           1.7331   -1.0173    0.3427 N.ar    1  UNL1       -0.1495
      5 C           2.7148   -2.0129    0.0950 C.ar    1  UNL1        0.0862
      6 C           2.7142   -3.2044    0.8368 C.ar    1  UNL1       -0.0345
      7 C           3.6749   -4.1851    0.5840 C.ar    1  UNL1       -0.0597
      8 C           4.6339   -3.9833   -0.4058 C.ar    1  UNL1       -0.0616
      9 C           4.6387   -2.7997   -1.1466 C.ar    1  UNL1       -0.0597
     10 C           3.6824   -1.8130   -0.8987 C.ar    1  UNL1       -0.0345
     11 N           0.7767   -1.1742    1.2945 N.ar    1  UNL1       -0.1512
     12 C           0.0517   -0.0521    1.1676 C.ar    1  UNL1        0.0954
     13 C          -1.1575    0.1794    2.0077 C.3     1  UNL1        0.0187
     14 C          -2.3528   -0.0614    1.1152 C.ar    1  UNL1       -0.0415
     15 C          -2.7208   -1.3650    0.7454 C.ar    1  UNL1       -0.0582
     16 C          -3.8221   -1.5858   -0.0824 C.ar    1  UNL1       -0.0615
     17 C          -4.5732   -0.5083   -0.5454 C.ar    1  UNL1       -0.0617
     18 C          -4.2222    0.7919   -0.1836 C.ar    1  UNL1       -0.0615
     19 C          -3.1209    1.0149    0.6437 C.ar    1  UNL1       -0.0582
     20 C           0.1785    3.1746    0.5524 C.ar    1  UNL1       -0.0525
     21 C          -0.2607    4.4179    0.0920 C.ar    1  UNL1       -0.0611
     22 C          -0.6783    4.5657   -1.2300 C.ar    1  UNL1       -0.0617
     23 C          -0.6523    3.4744   -2.0978 C.ar    1  UNL1       -0.0611
     24 C          -0.2083    2.2327   -1.6409 C.ar    1  UNL1       -0.0525
     25 H           1.9690   -3.3852    1.6088 H       1  UNL1        0.0639
     26 H           3.6695   -5.1123    1.1550 H       1  UNL1        0.0618
     27 H           5.3778   -4.7511   -0.6033 H       1  UNL1        0.0618
     28 H           5.3837   -2.6480   -1.9210 H       1  UNL1        0.0618
     29 H           3.7000   -0.8979   -1.4888 H       1  UNL1        0.0639
     30 H          -1.1625    1.1961    2.4140 H       1  UNL1        0.0378
     31 H          -1.1903   -0.5048    2.8645 H       1  UNL1        0.0378
     32 H          -2.1395   -2.2179    1.0910 H       1  UNL1        0.0620
     33 H          -4.0895   -2.5994   -0.3682 H       1  UNL1        0.0618
     34 H          -5.4319   -0.6810   -1.1894 H       1  UNL1        0.0618
     35 H          -4.8092    1.6339   -0.5387 H       1  UNL1        0.0618
     36 H          -2.8699    2.0351    0.9238 H       1  UNL1        0.0620
     37 H           0.5084    3.0764    1.5840 H       1  UNL1        0.0624
     38 H          -0.2752    5.2722    0.7646 H       1  UNL1        0.0618
     39 H          -1.0200    5.5329   -1.5872 H       1  UNL1        0.0618
     40 H          -0.9792    3.5896   -3.1292 H       1  UNL1        0.0618
     41 H          -0.1920    1.3852   -2.3209 H       1  UNL1        0.0624
@<TRIPOS>BOND
     1     1     2    1
     2     2     3   ar
     3     3     4   ar
     4     4     5    1
     5     5     6   ar
     6     6     7   ar
     7     7     8   ar
     8     8     9   ar
     9     9    10   ar
    10     4    11   ar
    11    11    12   ar
    12    12    13    1
    13    13    14    1
    14    14    15   ar
    15    15    16   ar
    16    16    17   ar
    17    17    18   ar
    18    18    19   ar
    19     1    20   ar
    20    20    21   ar
    21    21    22   ar
    22    22    23   ar
    23    23    24   ar
    24    24     1   ar
    25    12     2   ar
    26    10     5   ar
    27    19    14   ar
    28     6    25    1
    29     7    26    1
    30     8    27    1
    31     9    28    1
    32    10    29    1
    33    13    30    1
    34    13    31    1
    35    15    32    1
    36    16    33    1
    37    17    34    1
    38    18    35    1
    39    19    36    1
    40    20    37    1
    41    21    38    1
    42    22    39    1
    43    23    40    1
    44    24    41    1
