@<TRIPOS>MOLECULE
*****
 34 37 0 0 0
SMALL
GASTEIGER

@<TRIPOS>ATOM
      1 C           3.3507    0.2557    0.0043 C.ar    1  UNL1        0.0037
      2 C           1.9157    0.4600   -0.2020 C.ar    1  UNL1        0.1130
      3 N           0.9865   -0.3564    0.3176 N.ar    1  UNL1       -0.1471
      4 N          -0.1971    0.1810   -0.1066 N.ar    1  UNL1       -0.1491
      5 C          -1.4486   -0.4205    0.2503 C.ar    1  UNL1        0.0938
      6 C          -1.3728   -1.5815    1.0532 C.ar    1  UNL1       -0.0339
      7 C          -2.5192   -2.2495    1.4608 C.ar    1  UNL1       -0.0591
      8 C          -3.7629   -1.7714    1.0747 C.ar    1  UNL1       -0.0539
      9 C          -3.8853   -0.6240    0.2791 C.ar    1  UNL1       -0.0158
     10 C          -2.7314    0.0888   -0.1590 C.ar    1  UNL1        0.0092
     11 C          -2.9929    1.2372   -0.9618 C.ar    1  UNL1       -0.0519
     12 C          -4.2859    1.6489   -1.3044 C.ar    1  UNL1       -0.0611
     13 C          -5.3804    0.9299   -0.8594 C.ar    1  UNL1       -0.0612
     14 C          -5.1781   -0.1986   -0.0730 C.ar    1  UNL1       -0.0540
     15 N          -0.0723    1.2959   -0.8686 N.ar    1  UNL1       -0.1549
     16 C           1.2472    1.4656   -0.9251 C.ar    1  UNL1        0.0776
     17 C           4.2988    1.1277   -0.5527 C.ar    1  UNL1       -0.0525
     18 C           5.6670    0.9207   -0.3476 C.ar    1  UNL1       -0.0611
     19 C           6.1052   -0.1588    0.4157 C.ar    1  UNL1       -0.0617
     20 C           5.1777   -1.0332    0.9754 C.ar    1  UNL1       -0.0611
     21 C           3.8107   -0.8271    0.7709 C.ar    1  UNL1       -0.0525
     22 H          -0.4126   -1.9837    1.3741 H       1  UNL1        0.0639
     23 H          -2.4424   -3.1407    2.0780 H       1  UNL1        0.0618
     24 H          -4.6490   -2.3105    1.4055 H       1  UNL1        0.0624
     25 H          -2.1886    1.8537   -1.3495 H       1  UNL1        0.0624
     26 H          -4.4251    2.5338   -1.9201 H       1  UNL1        0.0618
     27 H          -6.3870    1.2429   -1.1209 H       1  UNL1        0.0618
     28 H          -6.0517   -0.7515    0.2678 H       1  UNL1        0.0624
     29 H           1.6492    2.3002   -1.4813 H       1  UNL1        0.0870
     30 H           3.9974    1.9809   -1.1540 H       1  UNL1        0.0624
     31 H           6.3910    1.6039   -0.7849 H       1  UNL1        0.0618
     32 H           7.1686   -0.3187    0.5745 H       1  UNL1        0.0618
     33 H           5.5143   -1.8773    1.5719 H       1  UNL1        0.0618
     34 H           3.1032   -1.5233    1.2179 H       1  UNL1        0.0624
@<TRIPOS>BOND
     1     1     2    1
     2     2     3   ar
     3     3     4   ar
     4     4     5    1
     5     5     6   ar
     6     6     7   ar
     7     7     8   ar
     8     8     9   ar
     9     9    10   ar
    10    10    11   ar
    11    11    12   ar
    12    12    13   ar
    13    13    14   ar
    14     4    15   ar
    15    15    16   ar
    16     1    17   ar
    17    17    18   ar
    18    18    19   ar
    19    19    20   ar
    20    20    21   ar
    21    21     1   ar
    22    16     2   ar
    23    10     5   ar
    24    14     9   ar
    25     6    22    1
    26     7    23    1
    27     8    24    1
    28    11    25    1
    29    12    26    1
    30    13    27    1
    31    14    28    1
    32    16    29    1
    33    17    30    1
    34    18    31    1
    35    19    32    1
    36    20    33    1
    37    21    34    1
