@<TRIPOS>MOLECULE
*****
 27 29 0 0 0
SMALL
GASTEIGER

@<TRIPOS>ATOM
      1 C          -2.2887   -0.2991    0.0541 C.ar    1  UNL1        0.0037
      2 C          -0.8678   -0.6248    0.1917 C.ar    1  UNL1        0.1131
      3 N           0.1048    0.2463   -0.1170 N.ar    1  UNL1       -0.1457
      4 N           1.2481   -0.4426    0.1508 N.ar    1  UNL1       -0.1310
      5 C           2.5507    0.1288   -0.0435 C.ar    1  UNL1        0.1746
      6 N           2.6515    1.4062   -0.5126 N.ar    1  UNL1       -0.2347
      7 C           3.8914    1.9111   -0.6832 C.ar    1  UNL1        0.0300
      8 C           5.0527    1.2089   -0.4103 C.ar    1  UNL1       -0.0435
      9 C           4.9393   -0.0913    0.0671 C.ar    1  UNL1       -0.0568
     10 C           3.6740   -0.6447    0.2552 C.ar    1  UNL1       -0.0157
     11 N           1.0718   -1.7157    0.6174 N.ar    1  UNL1       -0.1535
     12 C          -0.2580   -1.8170    0.6382 C.ar    1  UNL1        0.0776
     13 C          -3.2865   -1.2292    0.3842 C.ar    1  UNL1       -0.0525
     14 C          -4.6400   -0.9031    0.2473 C.ar    1  UNL1       -0.0611
     15 C          -5.0136    0.3547   -0.2204 C.ar    1  UNL1       -0.0617
     16 C          -4.0361    1.2888   -0.5521 C.ar    1  UNL1       -0.0611
     17 C          -2.6838    0.9638   -0.4157 C.ar    1  UNL1       -0.0525
     18 H           3.9276    2.9302   -1.0580 H       1  UNL1        0.0830
     19 H           6.0239    1.6654   -0.5663 H       1  UNL1        0.0633
     20 H           5.8291   -0.6729    0.2923 H       1  UNL1        0.0619
     21 H           3.5824   -1.6607    0.6282 H       1  UNL1        0.0655
     22 H          -0.7122   -2.7389    0.9721 H       1  UNL1        0.0870
     23 H          -3.0360   -2.2201    0.7520 H       1  UNL1        0.0624
     24 H          -5.4032   -1.6327    0.5065 H       1  UNL1        0.0618
     25 H          -6.0654    0.6073   -0.3264 H       1  UNL1        0.0618
     26 H          -4.3210    2.2720   -0.9176 H       1  UNL1        0.0618
     27 H          -1.9350    1.7092   -0.6808 H       1  UNL1        0.0624
@<TRIPOS>BOND
     1     1     2    1
     2     2     3   ar
     3     3     4   ar
     4     4     5    1
     5     5     6   ar
     6     6     7   ar
     7     7     8   ar
     8     8     9   ar
     9     9    10   ar
    10     4    11   ar
    11    11    12   ar
    12     1    13   ar
    13    13    14   ar
    14    14    15   ar
    15    15    16   ar
    16    16    17   ar
    17    17     1   ar
    18    12     2   ar
    19    10     5   ar
    20     7    18    1
    21     8    19    1
    22     9    20    1
    23    10    21    1
    24    12    22    1
    25    13    23    1
    26    14    24    1
    27    15    25    1
    28    16    26    1
    29    17    27    1
