@<TRIPOS>MOLECULE
*****
 23 26 0 0 0
SMALL
GASTEIGER

@<TRIPOS>ATOM
      1 C          -0.4646   -0.8615   -0.0687 C.ar    1  UNL1        0.0564
      2 N          -1.0634    0.3759   -0.0723 N.ar    1  UNL1       -0.2921
      3 C          -1.2883   -1.9168   -0.1734 C.ar    1  UNL1       -0.0371
      4 C          -2.7405   -1.6276   -0.2803 C.ar    1  UNL1       -0.0578
      5 C          -3.2535   -0.3658   -0.2761 C.ar    1  UNL1       -0.0362
      6 C          -2.3594    0.7345   -0.1641 C.ar    1  UNL1        0.0666
      7 C          -2.2713    2.1167   -0.1070 C.ar    1  UNL1        0.0538
      8 N          -0.9306    2.5522    0.0171 N.ar    1  UNL1       -0.2349
      9 C          -0.2408    1.4372    0.0325 C.ar    1  UNL1        0.1463
     10 C           1.0950    0.8808    0.1204 C.ar    1  UNL1        0.0269
     11 C           0.9772   -0.5602    0.0587 C.ar    1  UNL1        0.0095
     12 C           2.0932   -1.3658    0.1198 C.ar    1  UNL1       -0.0519
     13 C           3.3355   -0.7311    0.2431 C.ar    1  UNL1       -0.0611
     14 C           3.4458    0.6776    0.3029 C.ar    1  UNL1       -0.0611
     15 C           2.3172    1.5019    0.2415 C.ar    1  UNL1       -0.0505
     16 H          -0.9432   -2.9430   -0.1826 H       1  UNL1        0.0638
     17 H          -3.4020   -2.4858   -0.3647 H       1  UNL1        0.0619
     18 H          -4.3214   -0.1905   -0.3561 H       1  UNL1        0.0639
     19 H          -3.0761    2.8396   -0.1459 H       1  UNL1        0.0851
     20 H           2.0201   -2.4462    0.0748 H       1  UNL1        0.0624
     21 H           4.2407   -1.3340    0.2944 H       1  UNL1        0.0618
     22 H           4.4316    1.1294    0.3989 H       1  UNL1        0.0618
     23 H           2.3990    2.5824    0.2872 H       1  UNL1        0.0625
@<TRIPOS>BOND
     1     1     2   ar
     2     1     3   ar
     3     3     4   ar
     4     4     5   ar
     5     5     6   ar
     6     6     7   ar
     7     7     8   ar
     8     8     9   ar
     9     9    10   ar
    10    10    11   ar
    11    11    12   ar
    12    12    13   ar
    13    13    14   ar
    14    14    15   ar
    15    11     1   ar
    16     6     2   ar
    17     9     2   ar
    18    15    10   ar
    19     3    16    1
    20     4    17    1
    21     5    18    1
    22     7    19    1
    23    12    20    1
    24    13    21    1
    25    14    22    1
    26    15    23    1
