@<TRIPOS>MOLECULE
*****
 41 45 0 0 0
SMALL
GASTEIGER

@<TRIPOS>ATOM
      1 C           3.6203    0.0363   -0.1669 C.ar    1  UNL1        0.0317
      2 N           4.7717   -0.6624   -0.5849 N.pl3   1  UNL1       -0.3297
      3 C           4.8400   -1.7094   -1.5659 C.3     1  UNL1        0.0136
      4 C           6.3540   -1.4771   -1.5831 C.3     1  UNL1       -0.0214
      5 C           6.0254   -0.0991   -1.0003 C.3     1  UNL1        0.0136
      6 C           3.7209    1.3087    0.4009 C.ar    1  UNL1       -0.0400
      7 C           2.5793    1.9909    0.8222 C.ar    1  UNL1       -0.0508
      8 C           1.3141    1.4004    0.6857 C.ar    1  UNL1        0.0011
      9 C           0.1465    2.0528    1.0955 C.ar    1  UNL1       -0.0434
     10 C          -1.0958    1.4277    0.9450 C.ar    1  UNL1        0.0011
     11 C          -2.2895    2.0460    1.3460 C.ar    1  UNL1       -0.0508
     12 C          -3.5095    1.3905    1.1788 C.ar    1  UNL1       -0.0400
     13 C          -3.5605    0.1176    0.6056 C.ar    1  UNL1        0.0317
     14 N          -4.7898   -0.5542    0.4437 N.pl3   1  UNL1       -0.3297
     15 C          -5.0885   -1.5970   -0.4979 C.3     1  UNL1        0.0136
     16 C          -6.5660   -1.3309   -0.1933 C.3     1  UNL1       -0.0214
     17 C          -6.0902    0.0381    0.3031 C.3     1  UNL1        0.0136
     18 C          -2.3521   -0.4856    0.2248 C.ar    1  UNL1       -0.0147
     19 C          -1.1213    0.1422    0.3769 C.ar    1  UNL1        0.0734
     20 N          -0.0022   -0.4913   -0.0196 N.ar    1  UNL1       -0.2466
     21 C           1.1895    0.1161    0.1283 C.ar    1  UNL1        0.0734
     22 C           2.3454   -0.5387   -0.2805 C.ar    1  UNL1       -0.0147
     23 H           4.5148   -2.6825   -1.1912 H       1  UNL1        0.0464
     24 H           4.3220   -1.4550   -2.4965 H       1  UNL1        0.0464
     25 H           6.9184   -2.1298   -0.9078 H       1  UNL1        0.0295
     26 H           6.8246   -1.4771   -2.5693 H       1  UNL1        0.0295
     27 H           5.9083    0.7005   -1.7392 H       1  UNL1        0.0464
     28 H           6.6562    0.2260   -0.1700 H       1  UNL1        0.0464
     29 H           4.6921    1.7792    0.5266 H       1  UNL1        0.0636
     30 H           2.6857    2.9806    1.2595 H       1  UNL1        0.0625
     31 H           0.2048    3.0464    1.5330 H       1  UNL1        0.0631
     32 H          -2.2783    3.0367    1.7936 H       1  UNL1        0.0625
     33 H          -4.4211    1.8823    1.5070 H       1  UNL1        0.0636
     34 H          -4.7747   -1.3520   -1.5180 H       1  UNL1        0.0464
     35 H          -4.7130   -2.5781   -0.1987 H       1  UNL1        0.0464
     36 H          -6.9883   -1.9724    0.5882 H       1  UNL1        0.0295
     37 H          -7.2354   -1.3179   -1.0568 H       1  UNL1        0.0295
     38 H          -6.1151    0.8367   -0.4457 H       1  UNL1        0.0464
     39 H          -6.5226    0.3751    1.2478 H       1  UNL1        0.0464
     40 H          -2.3587   -1.4841   -0.2043 H       1  UNL1        0.0657
     41 H           2.2383   -1.5361   -0.6988 H       1  UNL1        0.0657
@<TRIPOS>BOND
     1     1     2    1
     2     2     3    1
     3     3     4    1
     4     4     5    1
     5     1     6   ar
     6     6     7   ar
     7     7     8   ar
     8     8     9   ar
     9     9    10   ar
    10    10    11   ar
    11    11    12   ar
    12    12    13   ar
    13    13    14    1
    14    14    15    1
    15    15    16    1
    16    16    17    1
    17    13    18   ar
    18    10    19   ar
    19    19    20   ar
    20     8    21   ar
    21    21    22   ar
    22    22     1   ar
    23     5     2    1
    24    17    14    1
    25    19    18   ar
    26    21    20   ar
    27     3    23    1
    28     3    24    1
    29     4    25    1
    30     4    26    1
    31     5    27    1
    32     5    28    1
    33     6    29    1
    34     7    30    1
    35     9    31    1
    36    11    32    1
    37    12    33    1
    38    15    34    1
    39    15    35    1
    40    16    36    1
    41    16    37    1
    42    17    38    1
    43    17    39    1
    44    18    40    1
    45    22    41    1
