@<TRIPOS>MOLECULE
*****
 34 37 0 0 0
SMALL
GASTEIGER

@<TRIPOS>ATOM
      1 C          -0.6677    0.7640    0.5855 C.ar    1  UNL1        0.0000
      2 N           0.7484    0.8122    0.7480 N.ar    1  UNL1        0.0000
      3 B           1.5310   -0.4124    0.3065 B       1  UNL1        0.0000
      4 C           3.0733   -0.2775    0.0082 C.ar    1  UNL1        0.0000
      5 C           3.7998   -1.3484   -0.4086 C.ar    1  UNL1        0.0000
      6 C           5.1631   -1.1936   -0.6635 C.ar    1  UNL1        0.0000
      7 C           5.7958    0.0286   -0.5014 C.ar    1  UNL1        0.0000
      8 C           5.0469    1.1122   -0.0767 C.ar    1  UNL1        0.0000
      9 C           3.7013    0.9397    0.1701 C.ar    1  UNL1        0.0000
     10 C           0.7003   -1.5924   -0.2780 C.ar    1  UNL1        0.0000
     11 C          -0.6387   -1.5159   -0.3798 C.ar    1  UNL1        0.0000
     12 C          -1.3282   -0.3252    0.0567 C.ar    1  UNL1        0.0000
     13 C          -2.6980   -0.2359   -0.0427 C.ar    1  UNL1        0.0000
     14 C          -3.4412   -1.2741   -0.5582 C.ar    1  UNL1        0.0000
     15 C          -4.8351   -1.1780   -0.6571 C.ar    1  UNL1        0.0000
     16 C          -5.4645   -0.0285   -0.2320 C.ar    1  UNL1        0.0000
     17 C          -4.7566    1.0122    0.2810 C.ar    1  UNL1        0.0000
     18 C          -3.3758    0.8924    0.3686 C.ar    1  UNL1        0.0000
     19 C          -2.7202    2.0006    0.9050 C.ar    1  UNL1        0.0000
     20 C          -1.3530    1.9116    1.0042 C.ar    1  UNL1        0.0000
     21 H           1.2248    1.6295    1.1429 H       1  UNL1        0.0000
     22 H           3.3517   -2.3290   -0.5514 H       1  UNL1        0.0000
     23 H           5.7874   -2.0098   -0.9963 H       1  UNL1        0.0000
     24 H           6.8509    0.1772   -0.6916 H       1  UNL1        0.0000
     25 H           5.5448    2.0722    0.0504 H       1  UNL1        0.0000
     26 H           3.1644    1.8311    0.5025 H       1  UNL1        0.0000
     27 H           1.2317   -2.4832   -0.6030 H       1  UNL1        0.0000
     28 H          -1.1072   -2.3916   -0.7987 H       1  UNL1        0.0000
     29 H          -3.0265   -2.2025   -0.9110 H       1  UNL1        0.0000
     30 H          -5.4342   -1.9841   -1.0596 H       1  UNL1        0.0000
     31 H          -6.5378    0.0442   -0.3087 H       1  UNL1        0.0000
     32 H          -5.2768    1.9128    0.6113 H       1  UNL1        0.0000
     33 H          -3.2463    2.8738    1.2231 H       1  UNL1        0.0000
     34 H          -0.8078    2.7678    1.4225 H       1  UNL1        0.0000
@<TRIPOS>BOND
     1     1     2   ar
     2     2     3   ar
     3     3     4    1
     4     4     5   ar
     5     5     6   ar
     6     6     7   ar
     7     7     8   ar
     8     8     9   ar
     9     3    10   ar
    10    10    11   ar
    11     1    12   ar
    12    12    13   ar
    13    13    14   ar
    14    14    15   ar
    15    15    16   ar
    16    16    17   ar
    17    13    18   ar
    18    18    19   ar
    19    19    20   ar
    20    20     1   ar
    21     9     4   ar
    22    12    11   ar
    23    18    17   ar
    24     2    21    1
    25     5    22    1
    26     6    23    1
    27     7    24    1
    28     8    25    1
    29     9    26    1
    30    10    27    1
    31    11    28    1
    32    14    29    1
    33    15    30    1
    34    16    31    1
    35    17    32    1
    36    19    33    1
    37    20    34    1
