@<TRIPOS>MOLECULE
*****
 18 20 0 0 0
SMALL
GASTEIGER

@<TRIPOS>ATOM
      1 C          -0.9968   -0.8342    0.3025 C.ar    1  UNL1        0.1356
      2 O          -2.1104   -1.5329    0.6534 O.2     1  UNL1       -0.4629
      3 C          -3.1748   -0.7219    0.4148 C.ar    1  UNL1        0.0931
      4 C          -2.7599    0.4916   -0.0859 C.ar    1  UNL1       -0.0160
      5 C          -1.3443    0.4299   -0.1633 C.ar    1  UNL1        0.0236
      6 C          -0.3152    1.2886   -0.5703 C.ar    1  UNL1       -0.0080
      7 C           0.9968    0.8342   -0.4878 C.ar    1  UNL1        0.1356
      8 O           2.1104    1.5329   -0.8387 O.2     1  UNL1       -0.4629
      9 C           3.1748    0.7219   -0.6001 C.ar    1  UNL1        0.0931
     10 C           2.7599   -0.4916   -0.0994 C.ar    1  UNL1       -0.0160
     11 C           1.3443   -0.4299   -0.0220 C.ar    1  UNL1        0.0236
     12 C           0.3152   -1.2886    0.3849 C.ar    1  UNL1       -0.0080
     13 H          -4.1425   -1.1441    0.6479 H       1  UNL1        0.1029
     14 H          -3.3990    1.3182   -0.3610 H       1  UNL1        0.0655
     15 H          -0.5264    2.2856   -0.9421 H       1  UNL1        0.0661
     16 H           4.1425    1.1441   -0.8333 H       1  UNL1        0.1029
     17 H           3.3990   -1.3182    0.1757 H       1  UNL1        0.0655
     18 H           0.5264   -2.2856    0.7568 H       1  UNL1        0.0661
@<TRIPOS>BOND
     1     1     2   ar
     2     2     3   ar
     3     3     4   ar
     4     1     5   ar
     5     5     6   ar
     6     6     7   ar
     7     7     8   ar
     8     8     9   ar
     9     9    10   ar
    10     7    11   ar
    11    11    12   ar
    12    12     1   ar
    13     5     4   ar
    14    11    10   ar
    15     3    13    1
    16     4    14    1
    17     6    15    1
    18     9    16    1
    19    10    17    1
    20    12    18    1
