@<TRIPOS>MOLECULE
*****
 44 50 0 0 0
SMALL
GASTEIGER

@<TRIPOS>ATOM
      1 C           6.3504    0.6279   -0.6465 C.ar    1  UNL1        0.0094
      2 N           5.4637    1.4248   -1.3395 N.ar    1  UNL1       -0.3659
      3 C           4.1686    1.1531   -0.9488 C.ar    1  UNL1        0.0100
      4 C           4.2261    0.1794    0.0196 C.ar    1  UNL1        0.0085
      5 C           3.1731   -0.4323    0.7095 C.ar    1  UNL1        0.0074
      6 C           3.6567   -1.4244    1.5993 C.ar    1  UNL1       -0.0520
      7 C           5.0504   -1.7468    1.7671 C.ar    1  UNL1       -0.0605
      8 C           6.1032   -1.1182    1.0630 C.ar    1  UNL1       -0.0526
      9 C           5.6046   -0.1557    0.1951 C.ar    1  UNL1        0.0000
     10 C           1.7746   -0.0985    0.5366 C.ar    1  UNL1        0.0481
     11 C           1.1233    1.1268    0.5142 C.ar    1  UNL1       -0.0280
     12 C          -0.2711    0.9046    0.3171 C.ar    1  UNL1        0.0091
     13 C          -0.4121   -0.4581    0.2295 C.ar    1  UNL1        0.0620
     14 N           0.8028   -1.0592    0.3642 N.ar    1  UNL1       -0.3532
     15 C          -1.7904   -1.1201    0.0087 C.ar    1  UNL1        0.0450
     16 S          -2.0050   -2.7829   -0.1051 S.2     1  UNL1       -0.0860
     17 C          -3.6952   -2.6046   -0.3276 C.ar    1  UNL1        0.0234
     18 C          -4.6100   -3.6513   -0.5069 C.ar    1  UNL1       -0.0292
     19 C          -5.9278   -3.2881   -0.6695 C.ar    1  UNL1        0.0286
     20 N          -6.3586   -2.0186   -0.6641 N.ar    1  UNL1       -0.2626
     21 C          -5.4641   -1.0149   -0.4897 C.ar    1  UNL1        0.0364
     22 C          -4.0879   -1.2570   -0.3122 C.ar    1  UNL1        0.0157
     23 C          -2.9398   -0.3568   -0.1078 C.ar    1  UNL1        0.0081
     24 C          -2.7553    1.0839   -0.0063 C.ar    1  UNL1       -0.0083
     25 C          -3.8433    1.9796   -0.1038 C.ar    1  UNL1       -0.0534
     26 C          -3.6767    3.3671   -0.0075 C.ar    1  UNL1       -0.0611
     27 C          -2.4165    3.9149    0.1903 C.ar    1  UNL1       -0.0611
     28 C          -1.3082    3.0802    0.2942 C.ar    1  UNL1       -0.0534
     29 C          -1.4512    1.6810    0.2003 C.ar    1  UNL1       -0.0081
     30 H           7.4141    0.6966   -0.8286 H       1  UNL1        0.0813
     31 H           5.7234    2.1041   -2.0426 H       1  UNL1        0.1648
     32 H           3.3396    1.6764   -1.4049 H       1  UNL1        0.0813
     33 H           2.9418   -1.9702    2.2153 H       1  UNL1        0.0624
     34 H           5.3077   -2.5237    2.4880 H       1  UNL1        0.0618
     35 H           7.1453   -1.3697    1.1959 H       1  UNL1        0.0624
     36 H           1.6119    2.0846    0.6369 H       1  UNL1        0.0645
     37 H           0.9693   -2.0551    0.3199 H       1  UNL1        0.1659
     38 H          -4.3011   -4.6893   -0.5178 H       1  UNL1        0.0644
     39 H          -6.6993   -4.0393   -0.8141 H       1  UNL1        0.0830
     40 H          -5.9114   -0.0314   -0.5021 H       1  UNL1        0.0836
     41 H          -4.8547    1.6337   -0.2560 H       1  UNL1        0.0624
     42 H          -4.5428    4.0202   -0.0878 H       1  UNL1        0.0618
     43 H          -2.2951    4.9923    0.2650 H       1  UNL1        0.0618
     44 H          -0.3330    3.5348    0.4504 H       1  UNL1        0.0624
@<TRIPOS>BOND
     1     1     2   ar
     2     2     3   ar
     3     3     4   ar
     4     4     5   ar
     5     5     6   ar
     6     6     7   ar
     7     7     8   ar
     8     8     9   ar
     9     5    10    1
    10    10    11   ar
    11    11    12   ar
    12    12    13   ar
    13    13    14   ar
    14    13    15   ar
    15    15    16   ar
    16    16    17   ar
    17    17    18   ar
    18    18    19   ar
    19    19    20   ar
    20    20    21   ar
    21    21    22   ar
    22    22    23   ar
    23    23    24   ar
    24    24    25   ar
    25    25    26   ar
    26    26    27   ar
    27    27    28   ar
    28    28    29   ar
    29     9     1   ar
    30    14    10   ar
    31    23    15   ar
    32    29    24   ar
    33     9     4   ar
    34    29    12   ar
    35    22    17   ar
    36     1    30    1
    37     2    31    1
    38     3    32    1
    39     6    33    1
    40     7    34    1
    41     8    35    1
    42    11    36    1
    43    14    37    1
    44    18    38    1
    45    19    39    1
    46    21    40    1
    47    25    41    1
    48    26    42    1
    49    27    43    1
    50    28    44    1
