@<TRIPOS>MOLECULE
*****
 43 47 0 0 0
SMALL
GASTEIGER

@<TRIPOS>ATOM
      1 SI          2.7529   -0.8548   -0.4494 Si      1  UNL1        0.0000
      2 C           1.5200    0.2320    0.4877 C.2     1  UNL1        0.0000
      3 C           2.1610    1.0859    1.3126 C.2     1  UNL1        0.0000
      4 C           3.6145    1.0000    1.2982 C.2     1  UNL1        0.0000
      5 C           4.1360    0.0770    0.4622 C.2     1  UNL1        0.0000
      6 C           5.5496   -0.2222    0.2573 C.ar    1  UNL1        0.0000
      7 C           6.3845   -0.4946    1.3451 C.ar    1  UNL1        0.0000
      8 C           7.7314   -0.7847    1.1358 C.ar    1  UNL1        0.0000
      9 C           8.2079   -0.7919   -0.1641 C.ar    1  UNL1        0.0000
     10 N           7.4417   -0.5299   -1.2433 N.ar    1  UNL1        0.0000
     11 C           6.1372   -0.2473   -1.0072 C.ar    1  UNL1        0.0000
     12 C           0.0774    0.1055    0.3185 C.ar    1  UNL1        0.0000
     13 C          -0.7252   -0.2555    1.4059 C.ar    1  UNL1        0.0000
     14 C          -2.1115   -0.3763    1.2587 C.ar    1  UNL1        0.0000
     15 C          -2.7314   -0.1282    0.0256 C.ar    1  UNL1        0.0000
     16 C          -1.9197    0.2367   -1.0587 C.ar    1  UNL1        0.0000
     17 C          -0.5327    0.3565   -0.9147 C.ar    1  UNL1        0.0000
     18 C          -4.1738   -0.2614   -0.1213 C.ar    1  UNL1        0.0000
     19 C          -4.9094   -1.4540    0.1257 C.ar    1  UNL1        0.0000
     20 C          -6.3385   -1.5830   -0.0250 C.ar    1  UNL1        0.0000
     21 C          -7.1938   -0.5346   -0.4340 C.ar    1  UNL1        0.0000
     22 C          -6.4588    0.6200   -0.6609 C.ar    1  UNL1        0.0000
     23 C          -6.9435    1.8385   -1.0534 C.ar    1  UNL1        0.0000
     24 O          -5.9094    2.7296   -1.1514 O.2     1  UNL1        0.0000
     25 C          -4.7594    2.0664   -0.8164 C.ar    1  UNL1        0.0000
     26 C          -5.0458    0.7581   -0.5181 C.ar    1  UNL1        0.0000
     27 H           2.7724   -0.5715   -1.9084 H       1  UNL1        0.0000
     28 H           2.6831   -2.2837   -0.0507 H       1  UNL1        0.0000
     29 H           1.6598    1.8046    1.9505 H       1  UNL1        0.0000
     30 H           4.2053    1.6580    1.9248 H       1  UNL1        0.0000
     31 H           5.9918   -0.4922    2.3590 H       1  UNL1        0.0000
     32 H           8.3914   -1.0019    1.9679 H       1  UNL1        0.0000
     33 H           9.2495   -1.0138   -0.3778 H       1  UNL1        0.0000
     34 H           5.5662   -0.0216   -1.9040 H       1  UNL1        0.0000
     35 H          -0.2786   -0.4514    2.3784 H       1  UNL1        0.0000
     36 H          -2.7092   -0.6565    2.1241 H       1  UNL1        0.0000
     37 H          -2.3642    0.4271   -2.0340 H       1  UNL1        0.0000
     38 H           0.0586    0.6581   -1.7765 H       1  UNL1        0.0000
     39 H          -4.3605   -2.3432    0.4417 H       1  UNL1        0.0000
     40 H          -6.7834   -2.5556    0.1910 H       1  UNL1        0.0000
     41 H          -8.2635   -0.6406   -0.5414 H       1  UNL1        0.0000
     42 H          -7.9220    2.2336   -1.2862 H       1  UNL1        0.0000
     43 H          -3.8583    2.6629   -0.8402 H       1  UNL1        0.0000
@<TRIPOS>BOND
     1     1     2    1
     2     2     3    2
     3     3     4    1
     4     4     5    2
     5     5     6    1
     6     6     7   ar
     7     7     8   ar
     8     8     9   ar
     9     9    10   ar
    10    10    11   ar
    11     2    12    1
    12    12    13   ar
    13    13    14   ar
    14    14    15   ar
    15    15    16   ar
    16    16    17   ar
    17    15    18    1
    18    18    19   ar
    19    19    20   ar
    20    20    21   ar
    21    21    22   ar
    22    22    23   ar
    23    23    24   ar
    24    24    25   ar
    25    25    26   ar
    26     5     1    1
    27    11     6   ar
    28    17    12   ar
    29    26    18   ar
    30    26    22   ar
    31     1    27    1
    32     1    28    1
    33     3    29    1
    34     4    30    1
    35     7    31    1
    36     8    32    1
    37     9    33    1
    38    11    34    1
    39    13    35    1
    40    14    36    1
    41    16    37    1
    42    17    38    1
    43    19    39    1
    44    20    40    1
    45    21    41    1
    46    23    42    1
    47    25    43    1
