@<TRIPOS>MOLECULE
*****
 47 54 0 0 0
SMALL
GASTEIGER

@<TRIPOS>ATOM
      1 C          -6.0915   -1.4194   -0.6155 C.ar    1  UNL1        0.0094
      2 N          -5.0563   -2.3299   -0.6528 N.ar    1  UNL1       -0.3659
      3 C          -3.8511   -1.6945   -0.4356 C.ar    1  UNL1        0.0100
      4 C          -4.1175   -0.3571   -0.2629 C.ar    1  UNL1        0.0071
      5 C          -3.2086    0.6766   -0.0047 C.ar    1  UNL1       -0.0081
      6 C          -3.9007    1.9114    0.1312 C.ar    1  UNL1       -0.0534
      7 C          -5.3290    2.0657    0.0199 C.ar    1  UNL1       -0.0605
      8 C          -6.2240    1.0040   -0.2403 C.ar    1  UNL1       -0.0526
      9 C          -5.5322   -0.1923   -0.3696 C.ar    1  UNL1       -0.0000
     10 C          -1.7744    0.5184    0.0847 C.ar    1  UNL1       -0.0075
     11 C          -0.9491    0.0889   -0.9890 C.ar    1  UNL1       -0.0449
     12 C           0.4992   -0.0612   -0.9168 C.ar    1  UNL1       -0.0049
     13 C           1.3531   -0.4904   -1.9755 C.ar    1  UNL1       -0.0023
     14 C           0.8936   -0.8249   -3.2338 C.ar    1  UNL1       -0.0160
     15 S           2.1612   -1.3077   -4.3013 S.2     1  UNL1       -0.1038
     16 C           3.3660   -1.0775   -3.0947 C.ar    1  UNL1       -0.0159
     17 C           2.7703   -0.6500   -1.9444 C.ar    1  UNL1        0.0011
     18 C           3.4379   -0.3502   -0.7186 C.ar    1  UNL1        0.0382
     19 C           4.7852   -0.3930   -0.3366 C.ar    1  UNL1        0.0466
     20 C           6.0268   -0.7114   -0.8863 C.ar    1  UNL1        0.0389
     21 N           7.1539   -0.6133   -0.1330 N.ar    1  UNL1       -0.2624
     22 C           7.0617   -0.2038    1.1540 C.ar    1  UNL1        0.0311
     23 C           5.8847    0.1354    1.7952 C.ar    1  UNL1       -0.0006
     24 C           4.7590    0.0221    0.9946 C.ar    1  UNL1        0.1392
     25 O           3.4847    0.3005    1.4021 O.2     1  UNL1       -0.4541
     26 C           2.6526    0.0703    0.3371 C.ar    1  UNL1        0.1452
     27 C           1.2553    0.2209    0.2838 C.ar    1  UNL1        0.0348
     28 C           0.4186    0.6415    1.3250 C.ar    1  UNL1        0.0112
     29 C           0.7746    0.9861    2.6074 C.ar    1  UNL1        0.0101
     30 N          -0.3780    1.3177    3.2844 N.ar    1  UNL1       -0.3659
     31 C          -1.4687    1.1916    2.4548 C.ar    1  UNL1        0.0100
     32 C          -1.0064    0.7817    1.2264 C.ar    1  UNL1        0.0078
     33 H          -7.1142   -1.7390   -0.7609 H       1  UNL1        0.0813
     34 H          -5.1649   -3.3236   -0.8080 H       1  UNL1        0.1648
     35 H          -2.9291   -2.2598   -0.4174 H       1  UNL1        0.0813
     36 H          -3.3143    2.8109    0.3265 H       1  UNL1        0.0624
     37 H          -5.7407    3.0679    0.1428 H       1  UNL1        0.0618
     38 H          -7.2937    1.1286   -0.3209 H       1  UNL1        0.0624
     39 H          -1.4493   -0.1346   -1.9311 H       1  UNL1        0.0630
     40 H          -0.1169   -0.8216   -3.6166 H       1  UNL1        0.0700
     41 H           4.4012   -1.2729   -3.3270 H       1  UNL1        0.0700
     42 H           6.1733   -1.0442   -1.9059 H       1  UNL1        0.0837
     43 H           8.0104   -0.1534    1.6833 H       1  UNL1        0.0831
     44 H           5.8396    0.4594    2.8242 H       1  UNL1        0.0670
     45 H           1.7302    1.0240    3.1122 H       1  UNL1        0.0813
     46 H          -0.4177    1.6037    4.2540 H       1  UNL1        0.1648
     47 H          -2.4646    1.3989    2.8229 H       1  UNL1        0.0813
@<TRIPOS>BOND
     1     1     2   ar
     2     2     3   ar
     3     3     4   ar
     4     4     5   ar
     5     5     6   ar
     6     6     7   ar
     7     7     8   ar
     8     8     9   ar
     9     5    10    1
    10    10    11   ar
    11    11    12   ar
    12    12    13   ar
    13    13    14   ar
    14    14    15   ar
    15    15    16   ar
    16    16    17   ar
    17    17    18   ar
    18    18    19   ar
    19    19    20   ar
    20    20    21   ar
    21    21    22   ar
    22    22    23   ar
    23    23    24   ar
    24    24    25   ar
    25    25    26   ar
    26    26    27   ar
    27    27    28   ar
    28    28    29   ar
    29    29    30   ar
    30    30    31   ar
    31    31    32   ar
    32     9     1   ar
    33    32    10   ar
    34     9     4   ar
    35    27    12   ar
    36    32    28   ar
    37    17    13   ar
    38    26    18   ar
    39    24    19   ar
    40     1    33    1
    41     2    34    1
    42     3    35    1
    43     6    36    1
    44     7    37    1
    45     8    38    1
    46    11    39    1
    47    14    40    1
    48    16    41    1
    49    20    42    1
    50    22    43    1
    51    23    44    1
    52    29    45    1
    53    30    46    1
    54    31    47    1
