@<TRIPOS>MOLECULE
*****
 41 47 0 0 0
SMALL
GASTEIGER

@<TRIPOS>ATOM
      1 C           6.5530    0.1749   -1.6422 C.ar    1  UNL1        0.0094
      2 N           5.5372   -0.1079   -2.5209 N.ar    1  UNL1       -0.3659
      3 C           4.3187   -0.0629   -1.8722 C.ar    1  UNL1        0.0100
      4 C           4.5378    0.2537   -0.5501 C.ar    1  UNL1        0.0076
      5 C           3.6291    0.4191    0.5182 C.ar    1  UNL1       -0.0021
      6 C           4.3578    0.7479    1.7065 C.ar    1  UNL1       -0.0529
      7 C           5.7865    0.8895    1.8068 C.ar    1  UNL1       -0.0605
      8 C           6.6682    0.7192    0.7269 C.ar    1  UNL1       -0.0526
      9 C           5.9659    0.4008   -0.4247 C.ar    1  UNL1        0.0000
     10 C           2.1587    0.2964    0.5171 C.ar    1  UNL1        0.0211
     11 C           1.2952    0.4673    1.5922 C.ar    1  UNL1       -0.0391
     12 C          -0.0926    0.2815    1.2815 C.ar    1  UNL1       -0.0082
     13 C          -1.2467    0.3679    2.0896 C.ar    1  UNL1       -0.0275
     14 C          -2.5231    0.1485    1.5884 C.ar    1  UNL1        0.0723
     15 N          -3.5360    0.2598    2.4554 N.ar    1  UNL1       -0.2543
     16 C          -4.7942    0.0551    2.0127 C.ar    1  UNL1        0.0360
     17 C          -5.1393   -0.2675    0.7104 C.ar    1  UNL1        0.0030
     18 C          -6.5109   -0.4562    0.3806 C.ar    1  UNL1       -0.0504
     19 C          -6.9665   -0.7836   -0.9017 C.ar    1  UNL1       -0.0329
     20 C          -5.9683   -0.9223   -1.8848 C.ar    1  UNL1        0.1005
     21 N          -6.2008   -1.2316   -3.1692 N.ar    1  UNL1       -0.1908
     22 S          -4.7249   -1.2774   -3.9166 S.2     1  UNL1        0.1165
     23 N          -3.7306   -0.9082   -2.6477 N.ar    1  UNL1       -0.1901
     24 C          -4.5019   -0.7269   -1.5597 C.ar    1  UNL1        0.1082
     25 C          -4.0613   -0.3871   -0.2169 C.ar    1  UNL1        0.0209
     26 C          -2.7025   -0.1731    0.2299 C.ar    1  UNL1        0.0113
     27 C          -1.5470   -0.2623   -0.5915 C.ar    1  UNL1       -0.0376
     28 C          -0.2648   -0.0345   -0.0551 C.ar    1  UNL1        0.0206
     29 S           1.2374   -0.0940   -0.8726 S.2     1  UNL1       -0.0882
     30 H           7.5839    0.1871   -1.9687 H       1  UNL1        0.0813
     31 H           5.6590   -0.3193   -3.5027 H       1  UNL1        0.1648
     32 H           3.4306   -0.2670   -2.4489 H       1  UNL1        0.0813
     33 H           3.8107    0.9118    2.6345 H       1  UNL1        0.0624
     34 H           6.2055    1.1442    2.7808 H       1  UNL1        0.0618
     35 H           7.7402    0.8263    0.8060 H       1  UNL1        0.0624
     36 H           1.6281    0.7203    2.5904 H       1  UNL1        0.0635
     37 H          -1.1379    0.6148    3.1435 H       1  UNL1        0.0645
     38 H          -5.5501    0.1671    2.7876 H       1  UNL1        0.0836
     39 H          -7.2660   -0.3428    1.1617 H       1  UNL1        0.0625
     40 H          -8.0164   -0.9223   -1.1293 H       1  UNL1        0.0640
     41 H          -1.6218   -0.5065   -1.6456 H       1  UNL1        0.0636
@<TRIPOS>BOND
     1     1     2   ar
     2     2     3   ar
     3     3     4   ar
     4     4     5   ar
     5     5     6   ar
     6     6     7   ar
     7     7     8   ar
     8     8     9   ar
     9     5    10    1
    10    10    11   ar
    11    11    12   ar
    12    12    13   ar
    13    13    14   ar
    14    14    15   ar
    15    15    16   ar
    16    16    17   ar
    17    17    18   ar
    18    18    19   ar
    19    19    20   ar
    20    20    21   ar
    21    21    22   ar
    22    22    23   ar
    23    23    24   ar
    24    24    25   ar
    25    25    26   ar
    26    26    27   ar
    27    27    28   ar
    28    28    29   ar
    29     9     1   ar
    30    29    10   ar
    31     9     4   ar
    32    28    12   ar
    33    26    14   ar
    34    25    17   ar
    35    24    20   ar
    36     1    30    1
    37     2    31    1
    38     3    32    1
    39     6    33    1
    40     7    34    1
    41     8    35    1
    42    11    36    1
    43    13    37    1
    44    16    38    1
    45    18    39    1
    46    19    40    1
    47    27    41    1
