@<TRIPOS>MOLECULE
*****
 49 56 0 0 0
SMALL
GASTEIGER

@<TRIPOS>ATOM
      1 C           6.5692   -1.5396   -0.6638 C.ar    1  UNL1        0.0094
      2 N           5.4894   -2.3464   -0.9559 N.ar    1  UNL1       -0.3659
      3 C           4.3110   -1.7041   -0.6370 C.ar    1  UNL1        0.0100
      4 C           4.6403   -0.4655   -0.1403 C.ar    1  UNL1        0.0071
      5 C           3.7762    0.5345    0.3225 C.ar    1  UNL1       -0.0081
      6 C           4.5255    1.6561    0.7727 C.ar    1  UNL1       -0.0534
      7 C           5.9638    1.7404    0.7535 C.ar    1  UNL1       -0.0605
      8 C           6.8128    0.7141    0.2820 C.ar    1  UNL1       -0.0526
      9 C           6.0653   -0.3716   -0.1530 C.ar    1  UNL1       -0.0000
     10 C           2.3332    0.4503    0.3220 C.ar    1  UNL1       -0.0075
     11 C           1.5366    0.3581   -0.8498 C.ar    1  UNL1       -0.0456
     12 C           0.0985    0.2864   -0.8809 C.ar    1  UNL1       -0.0147
     13 C          -0.5541    0.1992   -2.1100 C.ar    1  UNL1       -0.0533
     14 C          -1.9514    0.1264   -2.2023 C.ar    1  UNL1       -0.0514
     15 C          -2.7458    0.1403   -1.0388 C.ar    1  UNL1        0.0086
     16 C          -2.1031    0.2290    0.2091 C.ar    1  UNL1        0.0559
     17 N          -3.0929    0.2268    1.1742 N.ar    1  UNL1       -0.3536
     18 C          -4.3499    0.1387    0.6220 C.ar    1  UNL1        0.0481
     19 C          -5.6271    0.1045    1.2310 C.ar    1  UNL1       -0.0372
     20 C          -6.7904    0.0104    0.4436 C.ar    1  UNL1       -0.0515
     21 C          -6.5357   -0.0411   -0.9262 C.ar    1  UNL1       -0.0102
     22 C          -7.5560   -0.1342   -1.8458 C.ar    1  UNL1       -0.0166
     23 S          -6.9592   -0.1806   -3.4653 S.2     1  UNL1       -0.1039
     24 C          -5.3173   -0.0753   -2.9448 C.ar    1  UNL1       -0.0160
     25 C          -5.2793   -0.0099   -1.5831 C.ar    1  UNL1       -0.0011
     26 C          -4.1209    0.0863   -0.7413 C.ar    1  UNL1        0.0156
     27 C          -0.7013    0.3020    0.3118 C.ar    1  UNL1        0.0152
     28 C           0.0892    0.3919    1.4723 C.ar    1  UNL1        0.0097
     29 C          -0.2991    0.4217    2.7924 C.ar    1  UNL1        0.0101
     30 N           0.8416    0.4993    3.5665 N.ar    1  UNL1       -0.3659
     31 C           1.9574    0.5199    2.7670 C.ar    1  UNL1        0.0100
     32 C           1.5258    0.4636    1.4637 C.ar    1  UNL1        0.0078
     33 H           7.5791   -1.8811   -0.8446 H       1  UNL1        0.0813
     34 H           5.5512   -3.2793   -1.3417 H       1  UNL1        0.1648
     35 H           3.3593   -2.1952   -0.7895 H       1  UNL1        0.0813
     36 H           3.9783    2.5200    1.1537 H       1  UNL1        0.0624
     37 H           6.4218    2.6576    1.1250 H       1  UNL1        0.0618
     38 H           7.8903    0.7855    0.2719 H       1  UNL1        0.0624
     39 H           2.0687    0.3476   -1.8041 H       1  UNL1        0.0630
     40 H           0.0199    0.1864   -3.0351 H       1  UNL1        0.0624
     41 H          -2.4012    0.0604   -3.1865 H       1  UNL1        0.0624
     42 H          -2.9239    0.2836    2.1637 H       1  UNL1        0.1659
     43 H          -5.7180    0.1509    2.3137 H       1  UNL1        0.0638
     44 H          -7.7791   -0.0174    0.8848 H       1  UNL1        0.0624
     45 H          -8.6223   -0.1785   -1.6728 H       1  UNL1        0.0699
     46 H          -4.5250   -0.0703   -3.6753 H       1  UNL1        0.0700
     47 H          -1.2540    0.3907    3.2895 H       1  UNL1        0.0813
     48 H           0.8556    0.5273    4.5778 H       1  UNL1        0.1648
     49 H           2.9471    0.5650    3.2018 H       1  UNL1        0.0813
@<TRIPOS>BOND
     1     1     2   ar
     2     2     3   ar
     3     3     4   ar
     4     4     5   ar
     5     5     6   ar
     6     6     7   ar
     7     7     8   ar
     8     8     9   ar
     9     5    10    1
    10    10    11   ar
    11    11    12   ar
    12    12    13   ar
    13    13    14   ar
    14    14    15   ar
    15    15    16   ar
    16    16    17   ar
    17    17    18   ar
    18    18    19   ar
    19    19    20   ar
    20    20    21   ar
    21    21    22   ar
    22    22    23   ar
    23    23    24   ar
    24    24    25   ar
    25    25    26   ar
    26    16    27   ar
    27    27    28   ar
    28    28    29   ar
    29    29    30   ar
    30    30    31   ar
    31    31    32   ar
    32     9     1   ar
    33    32    10   ar
    34     9     4   ar
    35    27    12   ar
    36    32    28   ar
    37    26    15   ar
    38    26    18   ar
    39    25    21   ar
    40     1    33    1
    41     2    34    1
    42     3    35    1
    43     6    36    1
    44     7    37    1
    45     8    38    1
    46    11    39    1
    47    13    40    1
    48    14    41    1
    49    17    42    1
    50    19    43    1
    51    20    44    1
    52    22    45    1
    53    24    46    1
    54    29    47    1
    55    30    48    1
    56    31    49    1
