@<TRIPOS>MOLECULE
*****
 46 52 0 0 0
SMALL
GASTEIGER

@<TRIPOS>ATOM
      1 C          -5.8883    1.4690    1.0631 C.ar    1  UNL1        0.0094
      2 N          -4.8559    2.3817    0.9919 N.ar    1  UNL1       -0.3659
      3 C          -3.6707    1.7424    0.6910 C.ar    1  UNL1        0.0100
      4 C          -3.9507    0.4033    0.5677 C.ar    1  UNL1        0.0071
      5 C          -3.0630   -0.6353    0.2644 C.ar    1  UNL1       -0.0082
      6 C          -3.7484   -1.8792    0.2295 C.ar    1  UNL1       -0.0534
      7 C          -5.1607   -2.0343    0.4681 C.ar    1  UNL1       -0.0605
      8 C          -6.0386   -0.9674    0.7698 C.ar    1  UNL1       -0.0526
      9 C          -5.3480    0.2366    0.8023 C.ar    1  UNL1       -0.0000
     10 C          -1.6301   -0.4660    0.0354 C.ar    1  UNL1       -0.0089
     11 C          -0.7860   -0.5875    1.1438 C.ar    1  UNL1       -0.0442
     12 C           0.5966   -0.4461    1.0373 C.ar    1  UNL1        0.0025
     13 C           1.3633   -0.5779    2.1864 C.ar    1  UNL1        0.0361
     14 N           2.6936   -0.4719    2.2596 N.ar    1  UNL1       -0.2532
     15 C           3.3289   -0.2107    1.0878 C.ar    1  UNL1        0.0863
     16 C           4.7619   -0.0673    1.0010 C.ar    1  UNL1        0.0152
     17 C           5.7599   -0.1541    2.0065 C.ar    1  UNL1       -0.0515
     18 C           7.1093    0.0222    1.6890 C.ar    1  UNL1       -0.0611
     19 C           7.4871    0.2852    0.3806 C.ar    1  UNL1       -0.0607
     20 C           6.5269    0.3764   -0.6298 C.ar    1  UNL1       -0.0473
     21 C           5.1686    0.1970   -0.2996 C.ar    1  UNL1        0.0220
     22 S           3.8320    0.2630   -1.3573 S.2     1  UNL1       -0.0860
     23 C           2.6546   -0.0580   -0.1320 C.ar    1  UNL1        0.0470
     24 C           1.2039   -0.1737   -0.2139 C.ar    1  UNL1        0.0071
     25 C           0.3398   -0.0456   -1.3891 C.ar    1  UNL1       -0.0084
     26 C           0.7910    0.2222   -2.7108 C.ar    1  UNL1       -0.0534
     27 C          -0.0611    0.3407   -3.8136 C.ar    1  UNL1       -0.0611
     28 C          -1.4208    0.1955   -3.6449 C.ar    1  UNL1       -0.0611
     29 C          -1.9162   -0.0685   -2.3738 C.ar    1  UNL1       -0.0534
     30 C          -1.0750   -0.1947   -1.2390 C.ar    1  UNL1       -0.0095
     31 H          -6.8953    1.7912    1.2895 H       1  UNL1        0.0813
     32 H          -4.9532    3.3782    1.1370 H       1  UNL1        0.1648
     33 H          -2.7520    2.3049    0.5909 H       1  UNL1        0.0813
     34 H          -3.1744   -2.7796    0.0045 H       1  UNL1        0.0624
     35 H          -5.5761   -3.0412    0.4114 H       1  UNL1        0.0618
     36 H          -7.0965   -1.0948    0.9468 H       1  UNL1        0.0624
     37 H          -1.2379   -0.7944    2.1152 H       1  UNL1        0.0630
     38 H           0.8952   -0.7870    3.1472 H       1  UNL1        0.0836
     39 H           5.4643   -0.3605    3.0330 H       1  UNL1        0.0624
     40 H           7.8607   -0.0478    2.4715 H       1  UNL1        0.0618
     41 H           8.5382    0.4218    0.1373 H       1  UNL1        0.0618
     42 H           6.8258    0.5825   -1.6538 H       1  UNL1        0.0629
     43 H           1.8400    0.3501   -2.9361 H       1  UNL1        0.0624
     44 H           0.3506    0.5468   -4.7981 H       1  UNL1        0.0618
     45 H          -2.0974    0.2857   -4.4895 H       1  UNL1        0.0618
     46 H          -2.9961   -0.1746   -2.2779 H       1  UNL1        0.0624
@<TRIPOS>BOND
     1     1     2   ar
     2     2     3   ar
     3     3     4   ar
     4     4     5   ar
     5     5     6   ar
     6     6     7   ar
     7     7     8   ar
     8     8     9   ar
     9     5    10    1
    10    10    11   ar
    11    11    12   ar
    12    12    13   ar
    13    13    14   ar
    14    14    15   ar
    15    15    16   ar
    16    16    17   ar
    17    17    18   ar
    18    18    19   ar
    19    19    20   ar
    20    20    21   ar
    21    21    22   ar
    22    22    23   ar
    23    23    24   ar
    24    24    25   ar
    25    25    26   ar
    26    26    27   ar
    27    27    28   ar
    28    28    29   ar
    29    29    30   ar
    30     9     1   ar
    31    30    10   ar
    32     9     4   ar
    33    24    12   ar
    34    30    25   ar
    35    23    15   ar
    36    21    16   ar
    37     1    31    1
    38     2    32    1
    39     3    33    1
    40     6    34    1
    41     7    35    1
    42     8    36    1
    43    11    37    1
    44    13    38    1
    45    17    39    1
    46    18    40    1
    47    19    41    1
    48    20    42    1
    49    26    43    1
    50    27    44    1
    51    28    45    1
    52    29    46    1
