@<TRIPOS>MOLECULE
*****
 42 48 0 0 0
SMALL
GASTEIGER

@<TRIPOS>ATOM
      1 C          -6.6094    0.6672   -1.1567 C.ar    1  UNL1        0.0094
      2 N          -5.7341    1.2178   -2.0691 N.ar    1  UNL1       -0.3659
      3 C          -4.4414    0.8234   -1.7914 C.ar    1  UNL1        0.0100
      4 C          -4.4901   -0.0066   -0.6970 C.ar    1  UNL1        0.0085
      5 C          -3.4354   -0.6484   -0.0382 C.ar    1  UNL1        0.0075
      6 C          -3.9064   -1.3887    1.0752 C.ar    1  UNL1       -0.0520
      7 C          -5.2911   -1.4658    1.4642 C.ar    1  UNL1       -0.0605
      8 C          -6.3459   -0.8104    0.7878 C.ar    1  UNL1       -0.0526
      9 C          -5.8591   -0.0901   -0.2951 C.ar    1  UNL1        0.0000
     10 C          -2.0461   -0.5635   -0.4387 C.ar    1  UNL1        0.0496
     11 C          -1.4424   -0.7255   -1.6813 C.ar    1  UNL1       -0.0103
     12 C          -0.0518   -0.5353   -1.5260 C.ar    1  UNL1        0.0911
     13 N           0.9604   -0.5825   -2.4229 N.ar    1  UNL1       -0.2527
     14 C           2.2373   -0.3542   -2.0023 C.ar    1  UNL1        0.0381
     15 C           2.5929   -0.0647   -0.6764 C.ar    1  UNL1        0.0282
     16 C           1.5837   -0.0084    0.2681 C.ar    1  UNL1        0.0747
     17 N           2.0825    0.2830    1.5057 N.ar    1  UNL1       -0.3524
     18 C           3.4550    0.4295    1.4198 C.ar    1  UNL1        0.0483
     19 C           4.4348    0.7304    2.4058 C.ar    1  UNL1       -0.0371
     20 C           5.8032    0.8286    2.0634 C.ar    1  UNL1       -0.0490
     21 C           6.0291    0.6022    0.7113 C.ar    1  UNL1        0.0206
     22 C           7.2463    0.6274    0.0747 C.ar    1  UNL1        0.0994
     23 O           7.0855    0.3576   -1.2644 O.2     1  UNL1       -0.4698
     24 C           5.7438    0.1563   -1.4893 C.ar    1  UNL1        0.1000
     25 C           5.1051    0.3033   -0.2994 C.ar    1  UNL1        0.0296
     26 C           3.7387    0.2112    0.0740 C.ar    1  UNL1        0.0196
     27 C           0.1525   -0.2658   -0.1955 C.ar    1  UNL1        0.0897
     28 N          -1.0343   -0.2855    0.4626 N.ar    1  UNL1       -0.3513
     29 H          -7.6693    0.8737   -1.2138 H       1  UNL1        0.0813
     30 H          -5.9989    1.8302   -2.8295 H       1  UNL1        0.1648
     31 H          -3.6207    1.1753   -2.4014 H       1  UNL1        0.0813
     32 H          -3.1906   -1.9576    1.6685 H       1  UNL1        0.0624
     33 H          -5.5406   -2.0750    2.3338 H       1  UNL1        0.0618
     34 H          -7.3813   -0.8754    1.0887 H       1  UNL1        0.0624
     35 H          -1.9513   -0.9623   -2.6053 H       1  UNL1        0.0660
     36 H           2.9837   -0.4127   -2.7878 H       1  UNL1        0.0836
     37 H           1.5440    0.3796    2.3539 H       1  UNL1        0.1660
     38 H           4.1341    0.8885    3.4394 H       1  UNL1        0.0638
     39 H           6.5716    1.0559    2.7904 H       1  UNL1        0.0625
     40 H           8.2653    0.8068    0.3872 H       1  UNL1        0.1035
     41 H           5.4668   -0.0675   -2.5084 H       1  UNL1        0.1036
     42 H          -1.1761   -0.1021    1.4452 H       1  UNL1        0.1660
@<TRIPOS>BOND
     1     1     2   ar
     2     2     3   ar
     3     3     4   ar
     4     4     5   ar
     5     5     6   ar
     6     6     7   ar
     7     7     8   ar
     8     8     9   ar
     9     5    10    1
    10    10    11   ar
    11    11    12   ar
    12    12    13   ar
    13    13    14   ar
    14    14    15   ar
    15    15    16   ar
    16    16    17   ar
    17    17    18   ar
    18    18    19   ar
    19    19    20   ar
    20    20    21   ar
    21    21    22   ar
    22    22    23   ar
    23    23    24   ar
    24    24    25   ar
    25    25    26   ar
    26    16    27   ar
    27    27    28   ar
    28     9     1   ar
    29    28    10   ar
    30     9     4   ar
    31    27    12   ar
    32    26    15   ar
    33    26    18   ar
    34    25    21   ar
    35     1    29    1
    36     2    30    1
    37     3    31    1
    38     6    32    1
    39     7    33    1
    40     8    34    1
    41    11    35    1
    42    14    36    1
    43    17    37    1
    44    19    38    1
    45    20    39    1
    46    22    40    1
    47    24    41    1
    48    28    42    1
