@<TRIPOS>MOLECULE
*****
 48 55 0 0 0
SMALL
GASTEIGER

@<TRIPOS>ATOM
      1 C          -6.5729   -1.5256    1.0302 C.ar    1  UNL1        0.0094
      2 N          -5.6723   -1.1879    2.0190 N.ar    1  UNL1       -0.3659
      3 C          -4.4447   -0.8858    1.4663 C.ar    1  UNL1        0.0100
      4 C          -4.5633   -1.0291    0.1048 C.ar    1  UNL1        0.0071
      5 C          -3.5780   -0.8335   -0.8702 C.ar    1  UNL1       -0.0081
      6 C          -4.1001   -1.1128   -2.1611 C.ar    1  UNL1       -0.0534
      7 C          -5.4570   -1.5234   -2.4190 C.ar    1  UNL1       -0.0605
      8 C          -6.4371   -1.7052   -1.4166 C.ar    1  UNL1       -0.0526
      9 C          -5.9044   -1.4376   -0.1631 C.ar    1  UNL1       -0.0000
     10 C          -2.2176   -0.4260   -0.6078 C.ar    1  UNL1       -0.0070
     11 C          -1.1209   -1.3182   -0.6040 C.ar    1  UNL1       -0.0274
     12 C           0.2321   -0.9841   -0.3574 C.ar    1  UNL1        0.0728
     13 N           1.0729   -2.0174   -0.3243 N.ar    1  UNL1       -0.2542
     14 C           2.3914   -1.8026   -0.0716 C.ar    1  UNL1        0.0380
     15 C           3.0209   -0.5718    0.0645 C.ar    1  UNL1        0.0275
     16 C           4.4544   -0.5391    0.2803 C.ar    1  UNL1        0.0808
     17 N           5.1464   -1.6877    0.4535 N.ar    1  UNL1       -0.2543
     18 C           6.4870   -1.6516    0.6586 C.ar    1  UNL1        0.0283
     19 C           7.2385   -0.4942    0.7005 C.ar    1  UNL1       -0.0430
     20 C           6.5771    0.7062    0.5165 C.ar    1  UNL1       -0.0504
     21 C           5.1806    0.6842    0.3081 C.ar    1  UNL1        0.0118
     22 C           4.3494    1.7883    0.0564 C.ar    1  UNL1        0.0296
     23 C           4.7328    3.0930   -0.1154 C.ar    1  UNL1        0.1000
     24 O           3.6517    3.8381   -0.4804 O.2     1  UNL1       -0.4698
     25 C           2.5771    2.9968   -0.5303 C.ar    1  UNL1        0.1000
     26 C           2.9356    1.7343   -0.1248 C.ar    1  UNL1        0.0289
     27 C           2.1371    0.5571   -0.0583 C.ar    1  UNL1        0.0061
     28 C           0.6923    0.3504   -0.1427 C.ar    1  UNL1        0.0171
     29 C          -0.4292    1.2435   -0.0194 C.ar    1  UNL1       -0.0005
     30 C          -0.3694    2.5078    0.5207 C.ar    1  UNL1       -0.0159
     31 S          -1.8852    3.3131    0.4879 S.2     1  UNL1       -0.1038
     32 C          -2.6819    1.9176   -0.1017 C.ar    1  UNL1       -0.0160
     33 C          -1.8081    0.8655   -0.2614 C.ar    1  UNL1       -0.0024
     34 H          -7.5897   -1.7973    1.2786 H       1  UNL1        0.0813
     35 H          -5.8796   -1.1695    3.0090 H       1  UNL1        0.1648
     36 H          -3.6133   -0.6029    2.0979 H       1  UNL1        0.0813
     37 H          -3.4367   -1.0089   -3.0213 H       1  UNL1        0.0624
     38 H          -5.7419   -1.7067   -3.4557 H       1  UNL1        0.0618
     39 H          -7.4512   -2.0161   -1.6203 H       1  UNL1        0.0624
     40 H          -1.3349   -2.3740   -0.7905 H       1  UNL1        0.0645
     41 H           2.9640   -2.7286   -0.0127 H       1  UNL1        0.0836
     42 H           6.9544   -2.6241    0.7920 H       1  UNL1        0.0830
     43 H           8.3091   -0.5308    0.8655 H       1  UNL1        0.0633
     44 H           7.1312    1.6392    0.5305 H       1  UNL1        0.0625
     45 H           5.6704    3.6291   -0.0737 H       1  UNL1        0.1036
     46 H           1.6722    3.4590   -0.8965 H       1  UNL1        0.1036
     47 H           0.4646    3.0301    0.9623 H       1  UNL1        0.0700
     48 H          -3.7535    1.9391   -0.2506 H       1  UNL1        0.0700
@<TRIPOS>BOND
     1     1     2   ar
     2     2     3   ar
     3     3     4   ar
     4     4     5   ar
     5     5     6   ar
     6     6     7   ar
     7     7     8   ar
     8     8     9   ar
     9     5    10    1
    10    10    11   ar
    11    11    12   ar
    12    12    13   ar
    13    13    14   ar
    14    14    15   ar
    15    15    16   ar
    16    16    17   ar
    17    17    18   ar
    18    18    19   ar
    19    19    20   ar
    20    20    21   ar
    21    21    22   ar
    22    22    23   ar
    23    23    24   ar
    24    24    25   ar
    25    25    26   ar
    26    26    27   ar
    27    27    28   ar
    28    28    29   ar
    29    29    30   ar
    30    30    31   ar
    31    31    32   ar
    32    32    33   ar
    33     9     1   ar
    34    33    10   ar
    35     9     4   ar
    36    28    12   ar
    37    33    29   ar
    38    27    15   ar
    39    21    16   ar
    40    26    22   ar
    41     1    34    1
    42     2    35    1
    43     3    36    1
    44     6    37    1
    45     7    38    1
    46     8    39    1
    47    11    40    1
    48    14    41    1
    49    18    42    1
    50    19    43    1
    51    20    44    1
    52    23    45    1
    53    25    46    1
    54    30    47    1
    55    32    48    1
