@<TRIPOS>MOLECULE
*****
 44 51 0 0 0
SMALL
GASTEIGER

@<TRIPOS>ATOM
      1 C          -6.5995   -1.8240    0.2487 C.ar    1  UNL1        0.0094
      2 N          -5.5229   -2.5882    0.6462 N.ar    1  UNL1       -0.3659
      3 C          -4.3471   -1.8855    0.4755 C.ar    1  UNL1        0.0100
      4 C          -4.6741   -0.6574   -0.0490 C.ar    1  UNL1        0.0076
      5 C          -3.8261    0.4062   -0.3825 C.ar    1  UNL1       -0.0020
      6 C          -4.5692    1.5144   -0.8654 C.ar    1  UNL1       -0.0529
      7 C          -6.0037    1.5313   -0.9918 C.ar    1  UNL1       -0.0605
      8 C          -6.8452    0.4478   -0.6505 C.ar    1  UNL1       -0.0526
      9 C          -6.0971   -0.6228   -0.1790 C.ar    1  UNL1        0.0000
     10 C          -2.3766    0.3581   -0.2664 C.ar    1  UNL1        0.0241
     11 C          -1.5075   -0.5805   -0.7997 C.ar    1  UNL1       -0.0039
     12 C          -0.1888   -0.2518   -0.4349 C.ar    1  UNL1        0.1439
     13 O           1.0260   -0.8507   -0.6974 O.2     1  UNL1       -0.4536
     14 C           1.9674   -0.0661   -0.0707 C.ar    1  UNL1        0.1457
     15 C           1.3168    0.9681    0.5437 C.ar    1  UNL1        0.0459
     16 C           2.0269    1.9350    1.2659 C.ar    1  UNL1        0.0323
     17 C           1.6523    3.0394    1.9587 C.ar    1  UNL1        0.1001
     18 O           2.7973    3.6060    2.4634 O.2     1  UNL1       -0.4698
     19 C           3.8602    2.8286    2.0654 C.ar    1  UNL1        0.1000
     20 C           3.4250    1.7635    1.3086 C.ar    1  UNL1        0.0284
     21 C           4.2057    0.7356    0.7128 C.ar    1  UNL1       -0.0030
     22 C           5.6447    0.6275    0.8024 C.ar    1  UNL1       -0.0526
     23 C           6.3872   -0.4079    0.1975 C.ar    1  UNL1       -0.0529
     24 C           5.5795   -1.3129   -0.4947 C.ar    1  UNL1       -0.0102
     25 C           6.1087   -2.3948   -1.1545 C.ar    1  UNL1       -0.0166
     26 S           4.8810   -3.3258   -1.9114 S.2     1  UNL1       -0.1039
     27 C           3.6380   -2.2759   -1.3535 C.ar    1  UNL1       -0.0159
     28 C           4.1379   -1.2351   -0.6048 C.ar    1  UNL1        0.0004
     29 C           3.3701   -0.2166   -0.0138 C.ar    1  UNL1        0.0339
     30 C          -0.0466    0.8711    0.3262 C.ar    1  UNL1        0.0663
     31 S          -1.5743    1.6027    0.6390 S.2     1  UNL1       -0.0843
     32 H          -7.6072   -2.2103    0.3177 H       1  UNL1        0.0813
     33 H          -5.5860   -3.5264    1.0195 H       1  UNL1        0.1648
     34 H          -3.4022   -2.3321    0.7532 H       1  UNL1        0.0813
     35 H          -4.0315    2.4123   -1.1720 H       1  UNL1        0.0624
     36 H          -6.4674    2.4402   -1.3772 H       1  UNL1        0.0618
     37 H          -7.9209    0.4730   -0.7474 H       1  UNL1        0.0624
     38 H          -1.8028   -1.4290   -1.4018 H       1  UNL1        0.0666
     39 H           0.7270    3.5459    2.1927 H       1  UNL1        0.1036
     40 H           4.8253    3.1770    2.4051 H       1  UNL1        0.1036
     41 H           6.1975    1.3798    1.3643 H       1  UNL1        0.0624
     42 H           7.4650   -0.4723    0.2755 H       1  UNL1        0.0624
     43 H           7.1430   -2.6985   -1.2404 H       1  UNL1        0.0699
     44 H           2.6141   -2.4990   -1.6177 H       1  UNL1        0.0700
@<TRIPOS>BOND
     1     1     2   ar
     2     2     3   ar
     3     3     4   ar
     4     4     5   ar
     5     5     6   ar
     6     6     7   ar
     7     7     8   ar
     8     8     9   ar
     9     5    10    1
    10    10    11   ar
    11    11    12   ar
    12    12    13   ar
    13    13    14   ar
    14    14    15   ar
    15    15    16   ar
    16    16    17   ar
    17    17    18   ar
    18    18    19   ar
    19    19    20   ar
    20    20    21   ar
    21    21    22   ar
    22    22    23   ar
    23    23    24   ar
    24    24    25   ar
    25    25    26   ar
    26    26    27   ar
    27    27    28   ar
    28    28    29   ar
    29    15    30   ar
    30    30    31   ar
    31     9     1   ar
    32    31    10   ar
    33     9     4   ar
    34    30    12   ar
    35    29    14   ar
    36    20    16   ar
    37    29    21   ar
    38    28    24   ar
    39     1    32    1
    40     2    33    1
    41     3    34    1
    42     6    35    1
    43     7    36    1
    44     8    37    1
    45    11    38    1
    46    17    39    1
    47    19    40    1
    48    22    41    1
    49    23    42    1
    50    25    43    1
    51    27    44    1
