@<TRIPOS>MOLECULE
*****
 48 54 0 0 0
SMALL
GASTEIGER

@<TRIPOS>ATOM
      1 C          -7.5097   -0.2878    1.6847 C.ar    1  UNL1        0.0094
      2 N          -6.4311   -0.7046    2.4359 N.ar    1  UNL1       -0.3659
      3 C          -5.2592   -0.5310    1.7291 C.ar    1  UNL1        0.0100
      4 C          -5.5901    0.0143    0.5114 C.ar    1  UNL1        0.0071
      5 C          -4.7339    0.3529   -0.5451 C.ar    1  UNL1       -0.0088
      6 C          -5.4895    0.8477   -1.6444 C.ar    1  UNL1       -0.0534
      7 C          -6.9237    0.9869   -1.6559 C.ar    1  UNL1       -0.0605
      8 C          -7.7631    0.6426   -0.5731 C.ar    1  UNL1       -0.0526
      9 C          -7.0116    0.1539    0.4864 C.ar    1  UNL1       -0.0000
     10 C          -3.2833    0.2192   -0.5334 C.ar    1  UNL1       -0.0172
     11 C          -2.4967    0.9088    0.3986 C.ar    1  UNL1       -0.0534
     12 C          -1.1018    0.7857    0.3987 C.ar    1  UNL1       -0.0534
     13 C          -0.4448   -0.0315   -0.5342 C.ar    1  UNL1       -0.0157
     14 C          -1.2346   -0.7159   -1.4697 C.ar    1  UNL1       -0.0534
     15 C          -2.6296   -0.5913   -1.4705 C.ar    1  UNL1       -0.0534
     16 C           1.0181   -0.1405   -0.5388 C.ar    1  UNL1        0.0103
     17 C           1.8649    0.9949   -0.5706 C.ar    1  UNL1       -0.0513
     18 C           3.2771    0.9283   -0.5738 C.ar    1  UNL1       -0.0507
     19 C           3.9887   -0.2862   -0.5519 C.ar    1  UNL1        0.0190
     20 C           5.4441   -0.3359   -0.5427 C.ar    1  UNL1        0.0489
     21 S           6.2883   -1.0556   -1.8646 S.2     1  UNL1       -0.0922
     22 C           7.8258   -0.7355   -1.1734 C.ar    1  UNL1        0.0038
     23 C           7.7065   -0.0752    0.0216 C.ar    1  UNL1        0.0968
     24 N           8.7796    0.3101    0.7668 N.ar    1  UNL1       -0.2514
     25 C           8.3722    0.9478    1.8988 C.ar    1  UNL1        0.0464
     26 C           7.0389    1.1879    2.2553 C.ar    1  UNL1        0.0464
     27 N           5.9506    0.8190    1.5242 N.ar    1  UNL1       -0.2508
     28 C           6.3305    0.1665    0.3857 C.ar    1  UNL1        0.1040
     29 C           3.2096   -1.4766   -0.4995 C.ar    1  UNL1        0.1087
     30 N           3.6652   -2.7416   -0.4382 N.ar    1  UNL1       -0.1901
     31 S           2.3414   -3.7322   -0.3901 S.2     1  UNL1        0.1165
     32 N           1.1193   -2.6192   -0.4434 N.ar    1  UNL1       -0.1901
     33 C           1.6910   -1.4018   -0.4970 C.ar    1  UNL1        0.1082
     34 H          -8.5154   -0.3567    2.0758 H       1  UNL1        0.0813
     35 H          -6.4902   -1.0933    3.3679 H       1  UNL1        0.1648
     36 H          -4.3110   -0.8208    2.1614 H       1  UNL1        0.0813
     37 H          -4.9520    1.1555   -2.5428 H       1  UNL1        0.0624
     38 H          -7.3866    1.3839   -2.5599 H       1  UNL1        0.0618
     39 H          -8.8379    0.7469   -0.5919 H       1  UNL1        0.0624
     40 H          -2.9700    1.5552    1.1354 H       1  UNL1        0.0624
     41 H          -0.5326    1.3318    1.1482 H       1  UNL1        0.0624
     42 H          -0.7700   -1.3605   -2.2137 H       1  UNL1        0.0624
     43 H          -3.2066   -1.1476   -2.2067 H       1  UNL1        0.0624
     44 H           1.4085    1.9863   -0.6035 H       1  UNL1        0.0624
     45 H           3.8348    1.8659   -0.5932 H       1  UNL1        0.0625
     46 H           8.7330   -1.0380   -1.6756 H       1  UNL1        0.0715
     47 H           9.1774    1.2804    2.5482 H       1  UNL1        0.0845
     48 H           6.8093    1.7067    3.1820 H       1  UNL1        0.0845
@<TRIPOS>BOND
     1     1     2   ar
     2     2     3   ar
     3     3     4   ar
     4     4     5   ar
     5     5     6   ar
     6     6     7   ar
     7     7     8   ar
     8     8     9   ar
     9     5    10    1
    10    10    11   ar
    11    11    12   ar
    12    12    13   ar
    13    13    14   ar
    14    14    15   ar
    15    13    16    1
    16    16    17   ar
    17    17    18   ar
    18    18    19   ar
    19    19    20    1
    20    20    21   ar
    21    21    22   ar
    22    22    23   ar
    23    23    24   ar
    24    24    25   ar
    25    25    26   ar
    26    26    27   ar
    27    27    28   ar
    28    19    29   ar
    29    29    30   ar
    30    30    31   ar
    31    31    32   ar
    32    32    33   ar
    33     9     1   ar
    34    15    10   ar
    35    33    16   ar
    36     9     4   ar
    37    28    20   ar
    38    33    29   ar
    39    28    23   ar
    40     1    34    1
    41     2    35    1
    42     3    36    1
    43     6    37    1
    44     7    38    1
    45     8    39    1
    46    11    40    1
    47    12    41    1
    48    14    42    1
    49    15    43    1
    50    17    44    1
    51    18    45    1
    52    22    46    1
    53    25    47    1
    54    26    48    1
