@<TRIPOS>MOLECULE
*****
 50 56 0 0 0
SMALL
GASTEIGER

@<TRIPOS>ATOM
      1 C           6.2766   -0.0686    1.2236 C.ar    1  UNL1        0.0094
      2 N           5.2585   -0.4326    2.0793 N.ar    1  UNL1       -0.3659
      3 C           4.0325   -0.2113    1.4867 C.ar    1  UNL1        0.0100
      4 C           4.2681    0.2920    0.2293 C.ar    1  UNL1        0.0071
      5 C           3.3291    0.6780   -0.7371 C.ar    1  UNL1       -0.0087
      6 C           3.9954    1.1843   -1.8878 C.ar    1  UNL1       -0.0534
      7 C           5.4262    1.2744   -2.0323 C.ar    1  UNL1       -0.0605
      8 C           6.3508    0.8733   -1.0424 C.ar    1  UNL1       -0.0526
      9 C           5.6850    0.3894    0.0750 C.ar    1  UNL1       -0.0000
     10 C           1.8830    0.5797   -0.5927 C.ar    1  UNL1       -0.0166
     11 C           1.0705    1.6923   -0.7167 C.ar    1  UNL1       -0.0534
     12 C          -0.3122    1.5695   -0.5610 C.ar    1  UNL1       -0.0528
     13 C          -0.9699    0.3514   -0.2446 C.ar    1  UNL1       -0.0090
     14 C          -0.1636   -0.8166   -0.2504 C.ar    1  UNL1       -0.0090
     15 C           1.2484   -0.6530   -0.3859 C.ar    1  UNL1       -0.0457
     16 C          -0.7795   -2.1033   -0.1569 C.ar    1  UNL1       -0.0096
     17 C          -0.0312   -3.3166   -0.1233 C.ar    1  UNL1       -0.0534
     18 C          -0.6212   -4.5786   -0.0905 C.ar    1  UNL1       -0.0611
     19 C          -1.9937   -4.6761   -0.0893 C.ar    1  UNL1       -0.0611
     20 C          -2.7576   -3.5099   -0.1115 C.ar    1  UNL1       -0.0534
     21 C          -2.1932   -2.2002   -0.1415 C.ar    1  UNL1       -0.0096
     22 C          -2.9952   -1.0074   -0.1210 C.ar    1  UNL1       -0.0090
     23 C          -4.4061   -1.0653   -0.2069 C.ar    1  UNL1       -0.0528
     24 C          -5.2238    0.0533   -0.0958 C.ar    1  UNL1       -0.0534
     25 C          -4.6747    1.2838    0.2148 C.ar    1  UNL1       -0.0173
     26 C          -5.5382    2.3696    0.4504 C.ar    1  UNL1       -0.0540
     27 C          -5.0460    3.5986    0.8713 C.ar    1  UNL1       -0.0612
     28 C          -3.6880    3.7379    1.0903 C.ar    1  UNL1       -0.0611
     29 C          -2.8294    2.6614    0.8363 C.ar    1  UNL1       -0.0534
     30 C          -3.2692    1.4098    0.3227 C.ar    1  UNL1       -0.0096
     31 C          -2.3963    0.2757   -0.0110 C.ar    1  UNL1       -0.0019
     32 H           7.3112   -0.1657    1.5225 H       1  UNL1        0.0813
     33 H           5.3901   -0.7999    3.0127 H       1  UNL1        0.1648
     34 H           3.1185   -0.4285    2.0231 H       1  UNL1        0.0813
     35 H           3.3882    1.5195   -2.7303 H       1  UNL1        0.0624
     36 H           5.8162    1.6772   -2.9677 H       1  UNL1        0.0618
     37 H           7.4220    0.9471   -1.1585 H       1  UNL1        0.0624
     38 H           1.4966    2.6687   -0.9355 H       1  UNL1        0.0624
     39 H          -0.8877    2.4712   -0.7561 H       1  UNL1        0.0624
     40 H           1.9045   -1.5194   -0.3664 H       1  UNL1        0.0630
     41 H           1.0547   -3.3087   -0.1241 H       1  UNL1        0.0624
     42 H          -0.0033   -5.4717   -0.0682 H       1  UNL1        0.0618
     43 H          -2.4782   -5.6479   -0.0610 H       1  UNL1        0.0618
     44 H          -3.8328   -3.6582   -0.0785 H       1  UNL1        0.0624
     45 H          -4.9232   -2.0035   -0.3851 H       1  UNL1        0.0624
     46 H          -6.3000   -0.0741   -0.1880 H       1  UNL1        0.0624
     47 H          -6.6139    2.2549    0.3315 H       1  UNL1        0.0624
     48 H          -5.7234    4.4255    1.0635 H       1  UNL1        0.0618
     49 H          -3.2874    4.6724    1.4739 H       1  UNL1        0.0618
     50 H          -1.7872    2.8060    1.1109 H       1  UNL1        0.0624
@<TRIPOS>BOND
     1     1     2   ar
     2     2     3   ar
     3     3     4   ar
     4     4     5   ar
     5     5     6   ar
     6     6     7   ar
     7     7     8   ar
     8     8     9   ar
     9     5    10    1
    10    10    11   ar
    11    11    12   ar
    12    12    13   ar
    13    13    14   ar
    14    14    15   ar
    15    14    16   ar
    16    16    17   ar
    17    17    18   ar
    18    18    19   ar
    19    19    20   ar
    20    20    21   ar
    21    21    22   ar
    22    22    23   ar
    23    23    24   ar
    24    24    25   ar
    25    25    26   ar
    26    26    27   ar
    27    27    28   ar
    28    28    29   ar
    29    29    30   ar
    30    30    31   ar
    31     9     1   ar
    32    15    10   ar
    33    21    16   ar
    34    31    22   ar
    35     9     4   ar
    36    31    13   ar
    37    30    25   ar
    38     1    32    1
    39     2    33    1
    40     3    34    1
    41     6    35    1
    42     7    36    1
    43     8    37    1
    44    11    38    1
    45    12    39    1
    46    15    40    1
    47    17    41    1
    48    18    42    1
    49    19    43    1
    50    20    44    1
    51    23    45    1
    52    24    46    1
    53    26    47    1
    54    27    48    1
    55    28    49    1
    56    29    50    1
