@<TRIPOS>MOLECULE
*****
 41 46 0 0 0
SMALL
GASTEIGER

@<TRIPOS>ATOM
      1 C          -5.8450    2.0066    0.2993 C.ar    1  UNL1        0.0094
      2 N          -4.7147    2.7434    0.5829 N.ar    1  UNL1       -0.3659
      3 C          -3.5809    2.0095    0.2994 C.ar    1  UNL1        0.0100
      4 C          -3.9909    0.7810   -0.1618 C.ar    1  UNL1        0.0071
      5 C          -3.1966   -0.2937   -0.5844 C.ar    1  UNL1       -0.0087
      6 C          -4.0213   -1.3653   -1.0265 C.ar    1  UNL1       -0.0534
      7 C          -5.4619   -1.3433   -1.0263 C.ar    1  UNL1       -0.0605
      8 C          -6.2388   -0.2474   -0.5895 C.ar    1  UNL1       -0.0526
      9 C          -5.4194    0.7912   -0.1698 C.ar    1  UNL1       -0.0000
     10 C          -1.7405   -0.3203   -0.5783 C.ar    1  UNL1       -0.0166
     11 C          -1.0209   -0.5103   -1.7603 C.ar    1  UNL1       -0.0534
     12 C           0.3799   -0.5435   -1.7552 C.ar    1  UNL1       -0.0527
     13 C           1.1282   -0.3932   -0.5623 C.ar    1  UNL1       -0.0058
     14 C           0.3937   -0.2104    0.6231 C.ar    1  UNL1        0.0014
     15 C           1.1073   -0.0647    1.8039 C.ar    1  UNL1        0.0360
     16 N           2.4549   -0.0830    1.8941 N.ar    1  UNL1       -0.2536
     17 C           3.1838   -0.2555    0.7725 C.ar    1  UNL1        0.0836
     18 C           4.5861   -0.2773    0.8476 C.ar    1  UNL1        0.0444
     19 C           5.2933   -0.1274    2.0446 C.ar    1  UNL1        0.0388
     20 N           6.6431   -0.1435    2.1491 N.ar    1  UNL1       -0.2625
     21 C           7.3278   -0.3182    1.0052 C.ar    1  UNL1        0.0296
     22 C           6.7234   -0.4758   -0.2282 C.ar    1  UNL1       -0.0175
     23 C           5.3431   -0.4565   -0.3172 C.ar    1  UNL1        0.0759
     24 N           4.7718   -0.6097   -1.5154 N.ar    1  UNL1       -0.2541
     25 C           3.4211   -0.5867   -1.5735 C.ar    1  UNL1        0.0380
     26 C           2.5626   -0.4152   -0.4808 C.ar    1  UNL1        0.0268
     27 C          -1.0147   -0.1772    0.6105 C.ar    1  UNL1       -0.0448
     28 H          -6.8304    2.4248    0.4530 H       1  UNL1        0.0813
     29 H          -4.7158    3.6908    0.9380 H       1  UNL1        0.1648
     30 H          -2.6005    2.4410    0.4486 H       1  UNL1        0.0813
     31 H          -3.5384   -2.2770   -1.3822 H       1  UNL1        0.0624
     32 H          -5.9824   -2.2316   -1.3860 H       1  UNL1        0.0618
     33 H          -7.3189   -0.2388   -0.5956 H       1  UNL1        0.0624
     34 H          -1.5482   -0.6233   -2.7064 H       1  UNL1        0.0624
     35 H           0.8723   -0.6889   -2.7134 H       1  UNL1        0.0624
     36 H           0.6000    0.0779    2.7555 H       1  UNL1        0.0836
     37 H           4.7713    0.0154    2.9888 H       1  UNL1        0.0837
     38 H           8.4093   -0.3292    1.1051 H       1  UNL1        0.0830
     39 H           7.3251   -0.6135   -1.1198 H       1  UNL1        0.0654
     40 H           3.0412   -0.7180   -2.5825 H       1  UNL1        0.0836
     41 H          -1.5590   -0.0434    1.5453 H       1  UNL1        0.0630
@<TRIPOS>BOND
     1     1     2   ar
     2     2     3   ar
     3     3     4   ar
     4     4     5   ar
     5     5     6   ar
     6     6     7   ar
     7     7     8   ar
     8     8     9   ar
     9     5    10    1
    10    10    11   ar
    11    11    12   ar
    12    12    13   ar
    13    13    14   ar
    14    14    15   ar
    15    15    16   ar
    16    16    17   ar
    17    17    18   ar
    18    18    19   ar
    19    19    20   ar
    20    20    21   ar
    21    21    22   ar
    22    22    23   ar
    23    23    24   ar
    24    24    25   ar
    25    25    26   ar
    26    14    27   ar
    27     9     1   ar
    28    27    10   ar
    29     9     4   ar
    30    26    13   ar
    31    26    17   ar
    32    23    18   ar
    33     1    28    1
    34     2    29    1
    35     3    30    1
    36     6    31    1
    37     7    32    1
    38     8    33    1
    39    11    34    1
    40    12    35    1
    41    15    36    1
    42    19    37    1
    43    21    38    1
    44    22    39    1
    45    25    40    1
    46    27    41    1
