@<TRIPOS>MOLECULE
*****
 39 44 0 0 0
SMALL
GASTEIGER

@<TRIPOS>ATOM
      1 SI         -1.5442   -0.8006    0.1175 Si      1  UNL1        0.0000
      2 C          -0.7308    0.7156    0.8684 C.2     1  UNL1        0.0000
      3 C          -1.6492    1.5719    1.3579 C.2     1  UNL1        0.0000
      4 C          -3.0370    1.1526    1.2066 C.2     1  UNL1        0.0000
      5 C          -3.2255   -0.0427    0.6071 C.2     1  UNL1        0.0000
      6 C          -4.4867   -0.7051    0.3049 C.ar    1  UNL1        0.0000
      7 C          -4.7744   -2.0539    0.5601 C.ar    1  UNL1        0.0000
      8 N          -5.9377   -2.7359    0.2951 N.ar    1  UNL1        0.0000
      9 C          -6.9994   -2.1026   -0.2810 C.ar    1  UNL1        0.0000
     10 C          -6.8673   -0.7361   -0.5944 C.ar    1  UNL1        0.0000
     11 N          -7.8010    0.0453   -1.1612 N.ar    1  UNL1        0.0000
     12 S          -7.1202    1.5503   -1.3138 S.2     1  UNL1        0.0000
     13 N          -5.6193    1.2790   -0.6660 N.ar    1  UNL1        0.0000
     14 C          -5.5755   -0.0147   -0.2935 C.ar    1  UNL1        0.0000
     15 C           0.6720    0.8925    0.8931 C.ar    1  UNL1        0.0000
     16 C           1.4363    1.9390    1.3939 C.ar    1  UNL1        0.0000
     17 C           2.8007    1.6294    1.1774 C.ar    1  UNL1        0.0000
     18 C           2.8417    0.4050    0.5402 C.ar    1  UNL1        0.0000
     19 O           1.5549   -0.0335    0.3842 O.2     1  UNL1        0.0000
     20 C           3.9679   -0.3617    0.1050 C.ar    1  UNL1        0.0000
     21 S           3.9687   -2.1009    0.0910 S.2     1  UNL1        0.0000
     22 C           5.6053   -2.2092   -0.4821 C.ar    1  UNL1        0.0000
     23 C           6.0554   -0.9513   -0.6596 C.ar    1  UNL1        0.0000
     24 C           7.2039   -0.2499   -1.0970 C.ar    1  UNL1        0.0000
     25 C           6.8983    1.1253   -1.0246 C.ar    1  UNL1        0.0000
     26 N           5.6019    1.3408   -0.5601 N.ar    1  UNL1        0.0000
     27 C           5.1701    0.0599   -0.3521 C.ar    1  UNL1        0.0000
     28 H          -1.4260   -0.8969   -1.3602 H       1  UNL1        0.0000
     29 H          -1.3274   -2.0597    0.8774 H       1  UNL1        0.0000
     30 H          -1.4252    2.5171    1.8365 H       1  UNL1        0.0000
     31 H          -3.8388    1.7905    1.5616 H       1  UNL1        0.0000
     32 H          -4.0257   -2.6863    1.0394 H       1  UNL1        0.0000
     33 H          -7.8936   -2.6816   -0.4694 H       1  UNL1        0.0000
     34 H           1.0490    2.8266    1.8749 H       1  UNL1        0.0000
     35 H           3.6503    2.2253    1.4776 H       1  UNL1        0.0000
     36 H           6.0860   -3.1617   -0.6507 H       1  UNL1        0.0000
     37 H           8.1435   -0.6648   -1.4372 H       1  UNL1        0.0000
     38 H           7.5107    1.9804   -1.2813 H       1  UNL1        0.0000
     39 H           5.0883    2.2028   -0.4289 H       1  UNL1        0.0000
@<TRIPOS>BOND
     1     1     2    1
     2     2     3    2
     3     3     4    1
     4     4     5    2
     5     5     6    1
     6     6     7   ar
     7     7     8   ar
     8     8     9   ar
     9     9    10   ar
    10    10    11   ar
    11    11    12   ar
    12    12    13   ar
    13    13    14   ar
    14     2    15    1
    15    15    16   ar
    16    16    17   ar
    17    17    18   ar
    18    18    19   ar
    19    18    20    1
    20    20    21   ar
    21    21    22   ar
    22    22    23   ar
    23    23    24   ar
    24    24    25   ar
    25    25    26   ar
    26    26    27   ar
    27     5     1    1
    28    14     6   ar
    29    19    15   ar
    30    27    20   ar
    31    14    10   ar
    32    27    23   ar
    33     1    28    1
    34     1    29    1
    35     3    30    1
    36     4    31    1
    37     7    32    1
    38     9    33    1
    39    16    34    1
    40    17    35    1
    41    22    36    1
    42    24    37    1
    43    25    38    1
    44    26    39    1
