@<TRIPOS>MOLECULE
*****
 40 46 0 0 0
SMALL
GASTEIGER

@<TRIPOS>ATOM
      1 C          -6.1322   -1.4419    0.2168 C.ar    1  UNL1        0.0094
      2 N          -5.0623   -2.3095    0.2758 N.ar    1  UNL1       -0.3659
      3 C          -3.8781   -1.6049    0.3548 C.ar    1  UNL1        0.0100
      4 C          -4.1937   -0.2671    0.3332 C.ar    1  UNL1        0.0071
      5 C          -3.3222    0.8283    0.4013 C.ar    1  UNL1       -0.0073
      6 C          -4.0632    2.0430    0.3888 C.ar    1  UNL1       -0.0533
      7 C          -5.4995    2.1240    0.3087 C.ar    1  UNL1       -0.0605
      8 C          -6.3551    1.0024    0.2371 C.ar    1  UNL1       -0.0526
      9 C          -5.6170   -0.1726    0.2574 C.ar    1  UNL1       -0.0000
     10 C          -1.8722    0.7451    0.4788 C.ar    1  UNL1        0.0019
     11 C          -1.1719    1.2860    1.5527 C.ar    1  UNL1        0.0360
     12 N           0.1697    1.2769    1.7214 N.ar    1  UNL1       -0.2532
     13 C           0.8833    0.6713    0.7294 C.ar    1  UNL1        0.0872
     14 C           0.2789    0.1033   -0.3844 C.ar    1  UNL1        0.0394
     15 C          -1.1171    0.1355   -0.5272 C.ar    1  UNL1       -0.0367
     16 S           1.4404   -0.5693   -1.4374 S.2     1  UNL1       -0.0859
     17 C           2.7748   -0.1220   -0.4348 C.ar    1  UNL1        0.0347
     18 C           2.3162    0.5452    0.7065 C.ar    1  UNL1        0.0339
     19 C           3.2616    0.9865    1.6405 C.ar    1  UNL1        0.0385
     20 N           4.5877    0.7825    1.4617 N.ar    1  UNL1       -0.2542
     21 C           5.0369    0.1489    0.3798 C.ar    1  UNL1        0.0743
     22 C           6.4254   -0.0196    0.2737 C.ar    1  UNL1       -0.0335
     23 C           7.0839   -0.6613   -0.7922 C.ar    1  UNL1       -0.0315
     24 C           6.2498   -1.1600   -1.8129 C.ar    1  UNL1        0.1006
     25 N           6.6686   -1.8020   -2.9129 N.ar    1  UNL1       -0.1908
     26 S           5.3088   -2.1756   -3.7839 S.2     1  UNL1        0.1165
     27 N           4.1343   -1.5418   -2.8037 N.ar    1  UNL1       -0.1901
     28 C           4.7489   -0.9994   -1.7370 C.ar    1  UNL1        0.1101
     29 C           4.1573   -0.3353   -0.6218 C.ar    1  UNL1        0.0429
     30 H          -7.1450   -1.8166    0.1586 H       1  UNL1        0.0813
     31 H          -5.1349   -3.3188    0.2713 H       1  UNL1        0.1648
     32 H          -2.9356   -2.1311    0.4223 H       1  UNL1        0.0813
     33 H          -3.5163    2.9868    0.4296 H       1  UNL1        0.0624
     34 H          -5.9518    3.1165    0.3015 H       1  UNL1        0.0618
     35 H          -7.4315    1.0730    0.1797 H       1  UNL1        0.0624
     36 H          -1.7107    1.7691    2.3669 H       1  UNL1        0.0836
     37 H          -1.5937   -0.2985   -1.4020 H       1  UNL1        0.0636
     38 H           2.9740    1.5105    2.5474 H       1  UNL1        0.0837
     39 H           7.0421    0.3787    1.0820 H       1  UNL1        0.0640
     40 H           8.1613   -0.7660   -0.8277 H       1  UNL1        0.0640
@<TRIPOS>BOND
     1     1     2   ar
     2     2     3   ar
     3     3     4   ar
     4     4     5   ar
     5     5     6   ar
     6     6     7   ar
     7     7     8   ar
     8     8     9   ar
     9     5    10    1
    10    10    11   ar
    11    11    12   ar
    12    12    13   ar
    13    13    14   ar
    14    14    15   ar
    15    14    16   ar
    16    16    17   ar
    17    17    18   ar
    18    18    19   ar
    19    19    20   ar
    20    20    21   ar
    21    21    22   ar
    22    22    23   ar
    23    23    24   ar
    24    24    25   ar
    25    25    26   ar
    26    26    27   ar
    27    27    28   ar
    28    28    29   ar
    29     9     1   ar
    30    15    10   ar
    31    29    17   ar
    32     9     4   ar
    33    18    13   ar
    34    29    21   ar
    35    28    24   ar
    36     1    30    1
    37     2    31    1
    38     3    32    1
    39     6    33    1
    40     7    34    1
    41     8    35    1
    42    11    36    1
    43    15    37    1
    44    19    38    1
    45    22    39    1
    46    23    40    1
