@<TRIPOS>MOLECULE
*****
 45 50 0 0 0
SMALL
GASTEIGER

@<TRIPOS>ATOM
      1 C          -6.0469    2.6404   -0.0837 C.ar    1  UNL1        0.0094
      2 N          -4.7845    3.1722   -0.1438 N.ar    1  UNL1       -0.3659
      3 C          -3.8399    2.1671   -0.0735 C.ar    1  UNL1        0.0100
      4 C          -4.4877    0.9556    0.0345 C.ar    1  UNL1        0.0077
      5 C          -3.9769   -0.3622    0.1362 C.ar    1  UNL1       -0.0000
      6 C          -5.0819   -1.2694    0.2251 C.ar    1  UNL1       -0.0528
      7 C          -6.4786   -0.9185    0.2144 C.ar    1  UNL1       -0.0605
      8 C          -6.9541    0.3965    0.1125 C.ar    1  UNL1       -0.0526
      9 C          -5.8937    1.2828    0.0259 C.ar    1  UNL1        0.0000
     10 C          -2.5620   -0.8127    0.1549 C.ar    1  UNL1        0.0480
     11 S          -1.2518    0.2980    0.0472 S.2     1  UNL1       -0.0823
     12 C          -0.0003   -0.8789    0.1272 C.ar    1  UNL1        0.0655
     13 C           1.4123   -0.4471    0.0735 C.ar    1  UNL1        0.0797
     14 C           2.4869   -1.3232    0.1315 C.ar    1  UNL1       -0.0345
     15 C           3.7918   -0.8183    0.0732 C.ar    1  UNL1       -0.0491
     16 C           4.0418    0.5562   -0.0428 C.ar    1  UNL1        0.0185
     17 C           2.8956    1.3451   -0.0927 C.ar    1  UNL1        0.0374
     18 N           1.6155    0.8884   -0.0387 N.ar    1  UNL1       -0.2537
     19 C           5.4202    1.0956   -0.1049 C.ar    1  UNL1        0.0724
     20 C           5.7264    2.4535   -0.2203 C.ar    1  UNL1       -0.0356
     21 C           7.0607    2.8608   -0.2709 C.ar    1  UNL1       -0.0583
     22 C           8.0680    1.9107   -0.2060 C.ar    1  UNL1       -0.0436
     23 C           7.6965    0.5859   -0.0926 C.ar    1  UNL1        0.0283
     24 N           6.4123    0.1670   -0.0416 N.ar    1  UNL1       -0.2549
     25 C          -0.5722   -2.1283    0.2369 C.ar    1  UNL1        0.1060
     26 N           0.1539   -3.2843    0.3222 N.ar    1  UNL1       -0.2507
     27 C          -0.6412   -4.3767    0.4219 C.ar    1  UNL1        0.0464
     28 C          -2.0329   -4.3489    0.4376 C.ar    1  UNL1        0.0464
     29 N          -2.7869   -3.2268    0.3554 N.ar    1  UNL1       -0.2508
     30 C          -2.0274   -2.0928    0.2528 C.ar    1  UNL1        0.1046
     31 H          -6.9217    3.2748   -0.1244 H       1  UNL1        0.0813
     32 H          -4.5704    4.1574   -0.2275 H       1  UNL1        0.1648
     33 H          -2.8016    2.4555   -0.1107 H       1  UNL1        0.0813
     34 H          -4.8883   -2.3372    0.3104 H       1  UNL1        0.0624
     35 H          -7.2044   -1.7285    0.2904 H       1  UNL1        0.0618
     36 H          -8.0022    0.6566    0.1047 H       1  UNL1        0.0624
     37 H           2.3518   -2.3943    0.2211 H       1  UNL1        0.0639
     38 H           4.6211   -1.5227    0.1203 H       1  UNL1        0.0625
     39 H           2.9441    2.4257   -0.1820 H       1  UNL1        0.0836
     40 H           4.9569    3.2147   -0.2727 H       1  UNL1        0.0639
     41 H           7.3069    3.9153   -0.3606 H       1  UNL1        0.0619
     42 H           9.1134    2.1941   -0.2428 H       1  UNL1        0.0633
     43 H           8.4416   -0.2025   -0.0376 H       1  UNL1        0.0830
     44 H          -0.1133   -5.3233    0.4927 H       1  UNL1        0.0845
     45 H          -2.5967   -5.2737    0.5206 H       1  UNL1        0.0845
@<TRIPOS>BOND
     1     1     2   ar
     2     2     3   ar
     3     3     4   ar
     4     4     5   ar
     5     5     6   ar
     6     6     7   ar
     7     7     8   ar
     8     8     9   ar
     9     5    10    1
    10    10    11   ar
    11    11    12   ar
    12    12    13    1
    13    13    14   ar
    14    14    15   ar
    15    15    16   ar
    16    16    17   ar
    17    17    18   ar
    18    16    19    1
    19    19    20   ar
    20    20    21   ar
    21    21    22   ar
    22    22    23   ar
    23    23    24   ar
    24    12    25   ar
    25    25    26   ar
    26    26    27   ar
    27    27    28   ar
    28    28    29   ar
    29    29    30   ar
    30     9     1   ar
    31    30    10   ar
    32     9     4   ar
    33    18    13   ar
    34    24    19   ar
    35    30    25   ar
    36     1    31    1
    37     2    32    1
    38     3    33    1
    39     6    34    1
    40     7    35    1
    41     8    36    1
    42    14    37    1
    43    15    38    1
    44    17    39    1
    45    20    40    1
    46    21    41    1
    47    22    42    1
    48    23    43    1
    49    27    44    1
    50    28    45    1
