@<TRIPOS>MOLECULE
*****
 44 50 0 0 0
SMALL
GASTEIGER

@<TRIPOS>ATOM
      1 C           3.7979   -1.6953   -0.9153 C.ar    1  UNL1        0.0100
      2 N           3.1688   -2.9202   -1.0927 N.ar    1  UNL1       -0.3659
      3 C           1.8099   -2.7995   -0.8847 C.ar    1  UNL1        0.0102
      4 C           1.6304   -1.4869   -0.5810 C.ar    1  UNL1        0.0127
      5 C           2.8381   -0.7637   -0.5786 C.ar    1  UNL1        0.0080
      6 C           3.0212    0.6105   -0.3169 C.ar    1  UNL1       -0.0053
      7 C           1.8013    1.3029   -0.0315 C.ar    1  UNL1       -0.0293
      8 C           0.5624    0.6133   -0.0198 C.ar    1  UNL1        0.0518
      9 N          -0.7433    1.0180    0.2231 N.ar    1  UNL1       -0.3510
     10 C          -1.5828   -0.0797    0.1001 C.ar    1  UNL1        0.0945
     11 C          -0.8221   -1.1599   -0.2135 C.ar    1  UNL1        0.1620
     12 O          -1.5792   -2.2748   -0.3503 O.2     1  UNL1       -0.4526
     13 C          -2.8566   -1.8508   -0.1085 C.ar    1  UNL1        0.1384
     14 C          -3.9684   -2.6908   -0.1460 C.ar    1  UNL1       -0.0181
     15 C          -5.2151   -2.1146    0.1234 C.ar    1  UNL1       -0.0505
     16 C          -5.3495   -0.7484    0.4199 C.ar    1  UNL1       -0.0170
     17 C          -6.6048   -0.1820    0.6882 C.ar    1  UNL1       -0.0540
     18 C          -6.7294    1.1785    0.9822 C.ar    1  UNL1       -0.0612
     19 C          -5.6022    1.9968    1.0133 C.ar    1  UNL1       -0.0611
     20 C          -4.3418    1.4604    0.7505 C.ar    1  UNL1       -0.0533
     21 C          -4.2039    0.0896    0.4528 C.ar    1  UNL1       -0.0051
     22 C          -2.9372   -0.4888    0.1806 C.ar    1  UNL1        0.0519
     23 C           0.4843   -0.7381   -0.2848 C.ar    1  UNL1        0.0518
     24 C           4.3192    1.2721   -0.3340 C.ar    1  UNL1        0.0009
     25 C           5.3204    0.9623    0.5935 C.ar    1  UNL1       -0.0511
     26 C           6.5431    1.6294    0.5546 C.ar    1  UNL1       -0.0430
     27 C           6.7312    2.5987   -0.4160 C.ar    1  UNL1        0.0276
     28 N           5.7969    2.9355   -1.3290 N.ar    1  UNL1       -0.2627
     29 C           4.6197    2.2651   -1.2656 C.ar    1  UNL1        0.0353
     30 H           4.8676   -1.6164   -1.0551 H       1  UNL1        0.0813
     31 H           3.6403   -3.7779   -1.3485 H       1  UNL1        0.1648
     32 H           1.1375   -3.6408   -0.9818 H       1  UNL1        0.0813
     33 H           1.8280    2.3679    0.1899 H       1  UNL1        0.0644
     34 H          -1.0615    1.9498    0.4525 H       1  UNL1        0.1660
     35 H          -3.8645   -3.7450   -0.3750 H       1  UNL1        0.0655
     36 H          -6.0948   -2.7557    0.0984 H       1  UNL1        0.0625
     37 H          -7.5015   -0.7980    0.6705 H       1  UNL1        0.0624
     38 H          -7.7108    1.5992    1.1873 H       1  UNL1        0.0618
     39 H          -5.7062    3.0543    1.2425 H       1  UNL1        0.0618
     40 H          -3.4775    2.1157    0.7799 H       1  UNL1        0.0624
     41 H           5.1466    0.2028    1.3524 H       1  UNL1        0.0625
     42 H           7.3272    1.3994    1.2669 H       1  UNL1        0.0633
     43 H           7.6663    3.1468   -0.4861 H       1  UNL1        0.0829
     44 H           3.8948    2.5582   -2.0214 H       1  UNL1        0.0836
@<TRIPOS>BOND
     1     1     2   ar
     2     2     3   ar
     3     3     4   ar
     4     4     5   ar
     5     5     6   ar
     6     6     7   ar
     7     7     8   ar
     8     8     9   ar
     9     9    10   ar
    10    10    11   ar
    11    11    12   ar
    12    12    13   ar
    13    13    14   ar
    14    14    15   ar
    15    15    16   ar
    16    16    17   ar
    17    17    18   ar
    18    18    19   ar
    19    19    20   ar
    20    20    21   ar
    21    21    22   ar
    22    11    23   ar
    23     6    24    1
    24    24    25   ar
    25    25    26   ar
    26    26    27   ar
    27    27    28   ar
    28    28    29   ar
    29     5     1   ar
    30    23     8   ar
    31    29    24   ar
    32    23     4   ar
    33    22    10   ar
    34    22    13   ar
    35    21    16   ar
    36     1    30    1
    37     2    31    1
    38     3    32    1
    39     7    33    1
    40     9    34    1
    41    14    35    1
    42    15    36    1
    43    17    37    1
    44    18    38    1
    45    19    39    1
    46    20    40    1
    47    25    41    1
    48    26    42    1
    49    27    43    1
    50    29    44    1
