@<TRIPOS>MOLECULE
*****
 40 46 0 0 0
SMALL
GASTEIGER

@<TRIPOS>ATOM
      1 C           1.8201    2.4450    0.3864 C.ar    1  UNL1        0.0101
      2 N           0.9153    3.4668    0.4862 N.ar    1  UNL1       -0.3659
      3 C          -0.3680    2.9692    0.4097 C.ar    1  UNL1        0.0100
      4 C          -0.3011    1.5978    0.2946 C.ar    1  UNL1        0.0084
      5 C           1.1116    1.2720    0.2673 C.ar    1  UNL1        0.0093
      6 C           1.6769    0.0021    0.1087 C.ar    1  UNL1        0.0122
      7 C           0.6487   -0.9510   -0.0452 C.ar    1  UNL1       -0.0434
      8 C          -0.7721   -0.6424   -0.0212 C.ar    1  UNL1       -0.0053
      9 C          -1.7630   -1.6286   -0.1989 C.ar    1  UNL1        0.0282
     10 C          -1.5819   -2.9717   -0.4276 C.ar    1  UNL1        0.1000
     11 O          -2.7904   -3.5943   -0.5498 O.2     1  UNL1       -0.4698
     12 C          -3.7538   -2.6401   -0.3997 C.ar    1  UNL1        0.1000
     13 C          -3.1698   -1.4164   -0.1841 C.ar    1  UNL1        0.0282
     14 C          -3.8174   -0.1836    0.0240 C.ar    1  UNL1       -0.0037
     15 C          -5.2169   -0.0032    0.0483 C.ar    1  UNL1       -0.0352
     16 C          -5.6934    1.2650    0.2884 C.ar    1  UNL1        0.0282
     17 N          -4.8923    2.3205    0.5070 N.ar    1  UNL1       -0.2626
     18 C          -3.5456    2.1000    0.4735 C.ar    1  UNL1        0.0359
     19 C          -2.8884    0.8846    0.2224 C.ar    1  UNL1        0.0092
     20 C          -1.3933    0.6694    0.1761 C.ar    1  UNL1        0.0011
     21 C           3.0983   -0.2980    0.0928 C.ar    1  UNL1        0.0997
     22 N           3.9170    0.2664    1.0467 N.ar    1  UNL1       -0.2527
     23 C           5.2595    0.0024    1.0949 C.ar    1  UNL1        0.0304
     24 C           5.9844   -0.8265    0.2483 C.ar    1  UNL1       -0.0153
     25 C           5.1963   -1.4345   -0.7453 C.ar    1  UNL1        0.1034
     26 N           5.6530   -2.2784   -1.6843 N.ar    1  UNL1       -0.1907
     27 S           4.3447   -2.7090   -2.6086 S.2     1  UNL1        0.1165
     28 N           3.1400   -1.8555   -1.8551 N.ar    1  UNL1       -0.1886
     29 C           3.7134   -1.1793   -0.8408 C.ar    1  UNL1        0.1257
     30 H           2.8821    2.6507    0.4099 H       1  UNL1        0.0813
     31 H           1.1528    4.4460    0.5800 H       1  UNL1        0.1648
     32 H          -1.1744    3.6816    0.4338 H       1  UNL1        0.0813
     33 H           0.9445   -1.9909   -0.1848 H       1  UNL1        0.0631
     34 H          -0.7237   -3.6205   -0.5308 H       1  UNL1        0.1036
     35 H          -4.7700   -2.9999   -0.4733 H       1  UNL1        0.1036
     36 H          -5.9079   -0.8218   -0.1100 H       1  UNL1        0.0639
     37 H          -6.7588    1.4721    0.3195 H       1  UNL1        0.0830
     38 H          -2.9982    3.0041    0.6943 H       1  UNL1        0.0836
     39 H           5.7741    0.5212    1.9039 H       1  UNL1        0.0830
     40 H           7.0478   -0.9910    0.3429 H       1  UNL1        0.0655
@<TRIPOS>BOND
     1     1     2   ar
     2     2     3   ar
     3     3     4   ar
     4     4     5   ar
     5     5     6   ar
     6     6     7   ar
     7     7     8   ar
     8     8     9   ar
     9     9    10   ar
    10    10    11   ar
    11    11    12   ar
    12    12    13   ar
    13    13    14   ar
    14    14    15   ar
    15    15    16   ar
    16    16    17   ar
    17    17    18   ar
    18    18    19   ar
    19    19    20   ar
    20     6    21    1
    21    21    22   ar
    22    22    23   ar
    23    23    24   ar
    24    24    25   ar
    25    25    26   ar
    26    26    27   ar
    27    27    28   ar
    28    28    29   ar
    29     5     1   ar
    30    20     8   ar
    31    29    21   ar
    32    20     4   ar
    33    29    25   ar
    34    13     9   ar
    35    19    14   ar
    36     1    30    1
    37     2    31    1
    38     3    32    1
    39     7    33    1
    40    10    34    1
    41    12    35    1
    42    15    36    1
    43    16    37    1
    44    18    38    1
    45    23    39    1
    46    24    40    1
