@<TRIPOS>MOLECULE
*****
 44 51 0 0 0
SMALL
GASTEIGER

@<TRIPOS>ATOM
      1 C          -2.0888    2.3637    0.9215 C.ar    1  UNL1        0.0100
      2 N          -1.0125    3.1782    1.1766 N.ar    1  UNL1       -0.3659
      3 C           0.1578    2.5139    0.8937 C.ar    1  UNL1        0.0101
      4 C          -0.1592    1.2517    0.4445 C.ar    1  UNL1        0.0098
      5 C          -1.5964    1.1583    0.4771 C.ar    1  UNL1        0.0078
      6 C          -2.3577    0.0509    0.0932 C.ar    1  UNL1       -0.0060
      7 C          -1.5061   -0.9865   -0.3453 C.ar    1  UNL1       -0.0434
      8 C          -0.0536   -0.9066   -0.3804 C.ar    1  UNL1        0.0136
      9 C           0.7058   -2.0208   -0.8387 C.ar    1  UNL1        0.1083
     10 N           0.1979   -3.1958   -1.2560 N.ar    1  UNL1       -0.1901
     11 S           1.4674   -4.1545   -1.6881 S.2     1  UNL1        0.1165
     12 N           2.7230   -3.1368   -1.3586 N.ar    1  UNL1       -0.1901
     13 C           2.2125   -1.9807   -0.8950 C.ar    1  UNL1        0.1103
     14 C           2.9681   -0.8170   -0.4867 C.ar    1  UNL1        0.0383
     15 C           4.4167   -0.7130   -0.5154 C.ar    1  UNL1        0.0130
     16 C           5.3400   -1.6935   -0.9357 C.ar    1  UNL1        0.0360
     17 N           6.6930   -1.5617   -0.9486 N.ar    1  UNL1       -0.2626
     18 C           7.1932   -0.3913   -0.5233 C.ar    1  UNL1        0.0282
     19 C           6.4025    0.6509   -0.0859 C.ar    1  UNL1       -0.0344
     20 C           5.0097    0.4818   -0.0847 C.ar    1  UNL1        0.0038
     21 C           4.1663    1.4904    0.3430 C.ar    1  UNL1        0.0361
     22 N           2.8191    1.4042    0.3739 N.ar    1  UNL1       -0.2537
     23 C           2.1894    0.2855   -0.0279 C.ar    1  UNL1        0.0821
     24 C           0.7467    0.2301    0.0172 C.ar    1  UNL1        0.0194
     25 C          -3.8060   -0.0358    0.1453 C.ar    1  UNL1        0.0109
     26 C          -4.5469    0.0970    1.3461 C.ar    1  UNL1       -0.0518
     27 C          -5.9573    0.0063    1.4202 C.ar    1  UNL1       -0.0590
     28 C          -6.7667   -0.2302    0.2987 C.ar    1  UNL1       -0.0335
     29 C          -6.0928   -0.3803   -0.9363 C.ar    1  UNL1        0.1005
     30 N          -6.6825   -0.6142   -2.1189 N.ar    1  UNL1       -0.1908
     31 S          -5.4630   -0.7065   -3.2403 S.2     1  UNL1        0.1165
     32 N          -4.1355   -0.4547   -2.2809 N.ar    1  UNL1       -0.1902
     33 C          -4.5853   -0.2849   -1.0239 C.ar    1  UNL1        0.1076
     34 H          -3.0956    2.7288    1.0725 H       1  UNL1        0.0813
     35 H          -1.0692    4.1314    1.5113 H       1  UNL1        0.1648
     36 H           1.1037    3.0186    1.0335 H       1  UNL1        0.0813
     37 H          -1.9745   -1.9148   -0.6825 H       1  UNL1        0.0631
     38 H           5.0216   -2.6667   -1.2951 H       1  UNL1        0.0836
     39 H           8.2759   -0.3102   -0.5436 H       1  UNL1        0.0830
     40 H           6.8655    1.5742    0.2464 H       1  UNL1        0.0639
     41 H           4.5554    2.4446    0.6911 H       1  UNL1        0.0836
     42 H          -4.0009    0.2733    2.2753 H       1  UNL1        0.0624
     43 H          -6.4351    0.1220    2.3935 H       1  UNL1        0.0618
     44 H          -7.8456   -0.2990    0.3670 H       1  UNL1        0.0640
@<TRIPOS>BOND
     1     1     2   ar
     2     2     3   ar
     3     3     4   ar
     4     4     5   ar
     5     5     6   ar
     6     6     7   ar
     7     7     8   ar
     8     8     9   ar
     9     9    10   ar
    10    10    11   ar
    11    11    12   ar
    12    12    13   ar
    13    13    14   ar
    14    14    15   ar
    15    15    16   ar
    16    16    17   ar
    17    17    18   ar
    18    18    19   ar
    19    19    20   ar
    20    20    21   ar
    21    21    22   ar
    22    22    23   ar
    23    23    24   ar
    24     6    25    1
    25    25    26   ar
    26    26    27   ar
    27    27    28   ar
    28    28    29   ar
    29    29    30   ar
    30    30    31   ar
    31    31    32   ar
    32    32    33   ar
    33     5     1   ar
    34    24     8   ar
    35    33    25   ar
    36    24     4   ar
    37    33    29   ar
    38    13     9   ar
    39    23    14   ar
    40    20    15   ar
    41     1    34    1
    42     2    35    1
    43     3    36    1
    44     7    37    1
    45    16    38    1
    46    18    39    1
    47    19    40    1
    48    21    41    1
    49    26    42    1
    50    27    43    1
    51    28    44    1
