@<TRIPOS>MOLECULE
*****
 44 50 0 0 0
SMALL
GASTEIGER

@<TRIPOS>ATOM
      1 C          -2.0350   -2.1689    0.1471 C.ar    1  UNL1        0.0101
      2 N          -0.9063   -2.9325   -0.0020 N.ar    1  UNL1       -0.3659
      3 C           0.1945   -2.1174   -0.1296 C.ar    1  UNL1        0.0100
      4 C          -0.2067   -0.8121    0.0603 C.ar    1  UNL1        0.0084
      5 C          -1.6464   -0.8492    0.1403 C.ar    1  UNL1        0.0092
      6 C          -2.5063    0.2516    0.1274 C.ar    1  UNL1        0.0101
      7 C          -1.7471    1.4210   -0.0998 C.ar    1  UNL1       -0.0421
      8 C          -0.2962    1.4641   -0.2137 C.ar    1  UNL1        0.0122
      9 C           0.3208    2.6883   -0.6122 C.ar    1  UNL1        0.1082
     10 N          -0.3154    3.8457   -0.8820 N.ar    1  UNL1       -0.1901
     11 S           0.8300    4.9279   -1.3794 S.2     1  UNL1        0.1165
     12 N           2.1872    3.9909   -1.2800 N.ar    1  UNL1       -0.1901
     13 C           1.8035    2.7815   -0.8246 C.ar    1  UNL1        0.1082
     14 C           2.6688    1.6744   -0.5372 C.ar    1  UNL1        0.0115
     15 C           4.0493    1.8137   -0.7739 C.ar    1  UNL1       -0.0513
     16 C           4.9247    0.8005   -0.4203 C.ar    1  UNL1       -0.0534
     17 C           4.4597   -0.3095    0.2795 C.ar    1  UNL1       -0.0173
     18 C           5.3935   -1.2486    0.7505 C.ar    1  UNL1       -0.0540
     19 C           5.0013   -2.3024    1.5684 C.ar    1  UNL1       -0.0612
     20 C           3.6745   -2.4055    1.9481 C.ar    1  UNL1       -0.0611
     21 C           2.7384   -1.4862    1.4620 C.ar    1  UNL1       -0.0534
     22 C           3.0697   -0.4517    0.5542 C.ar    1  UNL1       -0.0095
     23 C           2.1041    0.4854    0.0031 C.ar    1  UNL1        0.0003
     24 C           0.6222    0.3540   -0.0180 C.ar    1  UNL1        0.0017
     25 C          -3.9622    0.2036    0.2226 C.ar    1  UNL1        0.0716
     26 C          -4.7832    0.9137   -0.6543 C.ar    1  UNL1       -0.0357
     27 C          -6.1665    0.8493   -0.4988 C.ar    1  UNL1       -0.0583
     28 C          -6.6993    0.0836    0.5289 C.ar    1  UNL1       -0.0436
     29 C          -5.8219   -0.5896    1.3596 C.ar    1  UNL1        0.0283
     30 N          -4.4778   -0.5468    1.2292 N.ar    1  UNL1       -0.2550
     31 H          -3.0110   -2.6330    0.2048 H       1  UNL1        0.0813
     32 H          -0.8943   -3.9416   -0.0747 H       1  UNL1        0.1648
     33 H           1.1543   -2.5595   -0.3578 H       1  UNL1        0.0813
     34 H          -2.2910    2.3620   -0.2099 H       1  UNL1        0.0631
     35 H           4.4471    2.7168   -1.2337 H       1  UNL1        0.0624
     36 H           5.9850    0.9288   -0.6266 H       1  UNL1        0.0624
     37 H           6.4498   -1.1457    0.5086 H       1  UNL1        0.0624
     38 H           5.7363   -3.0111    1.9394 H       1  UNL1        0.0618
     39 H           3.3593   -3.1880    2.6333 H       1  UNL1        0.0618
     40 H           1.7253   -1.5689    1.8494 H       1  UNL1        0.0624
     41 H          -4.3578    1.5055   -1.4587 H       1  UNL1        0.0639
     42 H          -6.8191    1.3937   -1.1750 H       1  UNL1        0.0619
     43 H          -7.7703    0.0133    0.6799 H       1  UNL1        0.0633
     44 H          -6.1854   -1.2009    2.1804 H       1  UNL1        0.0830
@<TRIPOS>BOND
     1     1     2   ar
     2     2     3   ar
     3     3     4   ar
     4     4     5   ar
     5     5     6   ar
     6     6     7   ar
     7     7     8   ar
     8     8     9   ar
     9     9    10   ar
    10    10    11   ar
    11    11    12   ar
    12    12    13   ar
    13    13    14   ar
    14    14    15   ar
    15    15    16   ar
    16    16    17   ar
    17    17    18   ar
    18    18    19   ar
    19    19    20   ar
    20    20    21   ar
    21    21    22   ar
    22    22    23   ar
    23    23    24   ar
    24     6    25    1
    25    25    26   ar
    26    26    27   ar
    27    27    28   ar
    28    28    29   ar
    29    29    30   ar
    30     5     1   ar
    31    24     8   ar
    32    30    25   ar
    33    24     4   ar
    34    13     9   ar
    35    23    14   ar
    36    22    17   ar
    37     1    31    1
    38     2    32    1
    39     3    33    1
    40     7    34    1
    41    15    35    1
    42    16    36    1
    43    18    37    1
    44    19    38    1
    45    20    39    1
    46    21    40    1
    47    26    41    1
    48    27    42    1
    49    28    43    1
    50    29    44    1
