@<TRIPOS>MOLECULE
*****
 40 45 0 0 0
SMALL
GASTEIGER

@<TRIPOS>ATOM
      1 C          -2.7003   -2.4558   -0.2354 C.ar    1  UNL1        0.0100
      2 N          -1.8139   -3.5106   -0.2224 N.ar    1  UNL1       -0.3659
      3 C          -0.5180   -3.0428   -0.2305 C.ar    1  UNL1        0.0100
      4 C          -0.5799   -1.6699   -0.2508 C.ar    1  UNL1        0.0077
      5 C          -1.9606   -1.2974   -0.2672 C.ar    1  UNL1        0.0077
      6 C          -2.4382    0.0177   -0.2809 C.ar    1  UNL1       -0.0067
      7 C          -1.3511    0.9385   -0.2703 C.ar    1  UNL1       -0.0455
      8 C           0.0522    0.5920   -0.2576 C.ar    1  UNL1       -0.0147
      9 C           1.0224    1.6058   -0.2559 C.ar    1  UNL1       -0.0300
     10 C           2.3835    1.2569   -0.2434 C.ar    1  UNL1        0.0481
     11 N           3.4989    2.0637   -0.2404 N.ar    1  UNL1       -0.3540
     12 C           4.6493    1.3128   -0.2258 C.ar    1  UNL1        0.0504
     13 C           5.9871    1.7016   -0.2175 C.ar    1  UNL1       -0.0196
     14 C           6.8996    0.6574   -0.2031 C.ar    1  UNL1        0.0295
     15 N           6.5772   -0.6545   -0.1971 N.ar    1  UNL1       -0.2625
     16 C           5.2668   -1.0059   -0.2058 C.ar    1  UNL1        0.0373
     17 C           4.2648   -0.0272   -0.2203 C.ar    1  UNL1        0.0255
     18 C           2.8339   -0.0618   -0.2320 C.ar    1  UNL1        0.0095
     19 C           1.8831   -1.0995   -0.2339 C.ar    1  UNL1       -0.0436
     20 C           0.5065   -0.7624   -0.2478 C.ar    1  UNL1       -0.0080
     21 C          -3.8410    0.4043   -0.3010 C.ar    1  UNL1        0.0009
     22 C          -4.3903    1.2218    0.6937 C.ar    1  UNL1       -0.0511
     23 C          -5.7357    1.5825    0.6437 C.ar    1  UNL1       -0.0430
     24 C          -6.5019    1.1161   -0.4106 C.ar    1  UNL1        0.0276
     25 N          -6.0194    0.3323   -1.3963 N.ar    1  UNL1       -0.2627
     26 C          -4.7065    0.0005   -1.3180 C.ar    1  UNL1        0.0353
     27 H          -3.7662   -2.6410   -0.2151 H       1  UNL1        0.0813
     28 H          -2.0774   -4.4875   -0.1999 H       1  UNL1        0.1648
     29 H           0.3116   -3.7357   -0.2143 H       1  UNL1        0.0813
     30 H          -1.6053    2.0011   -0.2859 H       1  UNL1        0.0630
     31 H           0.7300    2.6524   -0.2651 H       1  UNL1        0.0644
     32 H           3.4728    3.0728   -0.2482 H       1  UNL1        0.1659
     33 H           6.3005    2.7371   -0.2220 H       1  UNL1        0.0653
     34 H           7.9675    0.8617   -0.1958 H       1  UNL1        0.0830
     35 H           5.0533   -2.0684   -0.2009 H       1  UNL1        0.0836
     36 H           2.2014   -2.1361   -0.2258 H       1  UNL1        0.0631
     37 H          -3.7746    1.5709    1.5194 H       1  UNL1        0.0625
     38 H          -6.1744    2.2097    1.4114 H       1  UNL1        0.0633
     39 H          -7.5551    1.3686   -0.4926 H       1  UNL1        0.0829
     40 H          -4.3526   -0.6218   -2.1370 H       1  UNL1        0.0836
@<TRIPOS>BOND
     1     1     2   ar
     2     2     3   ar
     3     3     4   ar
     4     4     5   ar
     5     5     6   ar
     6     6     7   ar
     7     7     8   ar
     8     8     9   ar
     9     9    10   ar
    10    10    11   ar
    11    11    12   ar
    12    12    13   ar
    13    13    14   ar
    14    14    15   ar
    15    15    16   ar
    16    16    17   ar
    17    17    18   ar
    18    18    19   ar
    19    19    20   ar
    20     6    21    1
    21    21    22   ar
    22    22    23   ar
    23    23    24   ar
    24    24    25   ar
    25    25    26   ar
    26     5     1   ar
    27    20     8   ar
    28    26    21   ar
    29    20     4   ar
    30    18    10   ar
    31    17    12   ar
    32     1    27    1
    33     2    28    1
    34     3    29    1
    35     7    30    1
    36     9    31    1
    37    11    32    1
    38    13    33    1
    39    14    34    1
    40    16    35    1
    41    19    36    1
    42    22    37    1
    43    23    38    1
    44    24    39    1
    45    26    40    1
