@<TRIPOS>MOLECULE
*****
 44 51 0 0 0
SMALL
GASTEIGER

@<TRIPOS>ATOM
      1 C          -2.4667    2.9871    0.0476 C.ar    1  UNL1        0.0100
      2 N          -1.3869    3.7613   -0.3190 N.ar    1  UNL1       -0.3659
      3 C          -0.2411    2.9975   -0.3430 C.ar    1  UNL1        0.0100
      4 C          -0.5958    1.7177    0.0117 C.ar    1  UNL1        0.0077
      5 C          -2.0026    1.7123    0.2742 C.ar    1  UNL1        0.0078
      6 C          -2.7471    0.5893    0.6554 C.ar    1  UNL1       -0.0046
      7 C          -1.9013   -0.5548    0.7373 C.ar    1  UNL1       -0.0454
      8 C          -0.4800   -0.5800    0.4802 C.ar    1  UNL1       -0.0132
      9 C           0.2253   -1.7847    0.6037 C.ar    1  UNL1       -0.0110
     10 C           1.6006   -1.7804    0.3507 C.ar    1  UNL1        0.1369
     11 O           2.4022   -2.8880    0.4373 O.2     1  UNL1       -0.4548
     12 C           3.6710   -2.4920    0.1208 C.ar    1  UNL1        0.1369
     13 C           4.8124   -3.3165    0.0851 C.ar    1  UNL1       -0.0181
     14 C           6.0606   -2.7589   -0.2616 C.ar    1  UNL1       -0.0500
     15 C           6.0109   -1.3901   -0.5410 C.ar    1  UNL1       -0.0101
     16 C           7.1335   -0.6778   -0.8974 C.ar    1  UNL1       -0.0166
     17 S           6.7747    0.9892   -1.1830 S.2     1  UNL1       -0.1039
     18 C           5.0991    0.7729   -0.8299 C.ar    1  UNL1       -0.0159
     19 C           4.8789   -0.5345   -0.5137 C.ar    1  UNL1        0.0005
     20 C           3.6370   -1.1409   -0.1578 C.ar    1  UNL1        0.0361
     21 C           2.3331   -0.6504   -0.0217 C.ar    1  UNL1        0.0291
     22 C           1.6516    0.5696   -0.1543 C.ar    1  UNL1       -0.0420
     23 C           0.2536    0.5892    0.0990 C.ar    1  UNL1       -0.0079
     24 C          -4.1680    0.5877    0.9436 C.ar    1  UNL1        0.0290
     25 C          -4.7942    1.4466    1.8600 C.ar    1  UNL1        0.0375
     26 N          -6.1266    1.5139    2.1939 N.ar    1  UNL1       -0.2604
     27 C          -7.0279    0.6700    1.6160 C.ar    1  UNL1        0.0557
     28 C          -6.5526   -0.2657    0.6773 C.ar    1  UNL1        0.1185
     29 N          -7.2877   -1.1731    0.0140 N.ar    1  UNL1       -0.1892
     30 S          -6.2337   -2.0068   -0.9591 S.2     1  UNL1        0.1165
     31 N          -4.8040   -1.2610   -0.5772 N.ar    1  UNL1       -0.1901
     32 C          -5.0839   -0.3097    0.3338 C.ar    1  UNL1        0.1105
     33 H          -3.4534    3.4276    0.0972 H       1  UNL1        0.0813
     34 H          -1.4320    4.7457   -0.5502 H       1  UNL1        0.1648
     35 H           0.7040    3.4432   -0.6201 H       1  UNL1        0.0813
     36 H          -2.3725   -1.4992    1.0235 H       1  UNL1        0.0630
     37 H          -0.2656   -2.7100    0.8863 H       1  UNL1        0.0660
     38 H           4.7251   -4.3721    0.3235 H       1  UNL1        0.0655
     39 H           6.9619   -3.3591   -0.3006 H       1  UNL1        0.0625
     40 H           8.1508   -1.0267   -1.0106 H       1  UNL1        0.0699
     41 H           4.4207    1.6102   -0.8822 H       1  UNL1        0.0700
     42 H           2.1698    1.4755   -0.4421 H       1  UNL1        0.0631
     43 H          -4.1878    2.1678    2.4112 H       1  UNL1        0.0836
     44 H          -8.0654    0.7580    1.9090 H       1  UNL1        0.0852
@<TRIPOS>BOND
     1     1     2   ar
     2     2     3   ar
     3     3     4   ar
     4     4     5   ar
     5     5     6   ar
     6     6     7   ar
     7     7     8   ar
     8     8     9   ar
     9     9    10   ar
    10    10    11   ar
    11    11    12   ar
    12    12    13   ar
    13    13    14   ar
    14    14    15   ar
    15    15    16   ar
    16    16    17   ar
    17    17    18   ar
    18    18    19   ar
    19    19    20   ar
    20    20    21   ar
    21    21    22   ar
    22    22    23   ar
    23     6    24    1
    24    24    25   ar
    25    25    26   ar
    26    26    27   ar
    27    27    28   ar
    28    28    29   ar
    29    29    30   ar
    30    30    31   ar
    31    31    32   ar
    32     5     1   ar
    33    23     8   ar
    34    32    24   ar
    35    23     4   ar
    36    32    28   ar
    37    21    10   ar
    38    20    12   ar
    39    19    15   ar
    40     1    33    1
    41     2    34    1
    42     3    35    1
    43     7    36    1
    44     9    37    1
    45    13    38    1
    46    14    39    1
    47    16    40    1
    48    18    41    1
    49    22    42    1
    50    25    43    1
    51    27    44    1
