@<TRIPOS>MOLECULE
*****
 47 53 0 0 0
SMALL
GASTEIGER

@<TRIPOS>ATOM
      1 C           4.0694    0.8467    2.1778 C.ar    1  UNL1        0.0101
      2 N           3.1730    1.2566    3.1308 N.ar    1  UNL1       -0.3659
      3 C           1.8901    1.1469    2.6461 C.ar    1  UNL1        0.0100
      4 C           1.9575    0.7224    1.3372 C.ar    1  UNL1        0.0084
      5 C           3.3562    0.4913    1.0561 C.ar    1  UNL1        0.0107
      6 C           3.8762   -0.0483   -0.1251 C.ar    1  UNL1        0.0289
      7 C           2.7952   -0.3852   -0.9858 C.ar    1  UNL1       -0.0427
      8 C           1.3915   -0.1732   -0.7282 C.ar    1  UNL1       -0.0160
      9 C           0.4882   -0.5817   -1.6987 C.ar    1  UNL1       -0.0534
     10 C          -0.8922   -0.4461   -1.5177 C.ar    1  UNL1       -0.0528
     11 C          -1.4839    0.1219   -0.3704 C.ar    1  UNL1       -0.0090
     12 C          -0.5742    0.6882    0.5667 C.ar    1  UNL1       -0.0089
     13 C          -1.1221    1.5352    1.5394 C.ar    1  UNL1       -0.0528
     14 C          -2.4850    1.7980    1.6141 C.ar    1  UNL1       -0.0534
     15 C          -3.3844    1.1551    0.7711 C.ar    1  UNL1       -0.0167
     16 C          -4.7371    1.4803    0.9009 C.ar    1  UNL1       -0.0534
     17 C          -5.6994    0.8635    0.1162 C.ar    1  UNL1       -0.0534
     18 C          -5.3439   -0.1623   -0.7523 C.ar    1  UNL1       -0.0173
     19 C          -6.3632   -0.8269   -1.4572 C.ar    1  UNL1       -0.0540
     20 C          -6.0831   -1.9262   -2.2598 C.ar    1  UNL1       -0.0612
     21 C          -4.7821   -2.3890   -2.3368 C.ar    1  UNL1       -0.0611
     22 C          -3.7629   -1.7194   -1.6493 C.ar    1  UNL1       -0.0534
     23 C          -3.9803   -0.5439   -0.8821 C.ar    1  UNL1       -0.0096
     24 C          -2.9351    0.2156   -0.1889 C.ar    1  UNL1       -0.0025
     25 C           0.8609    0.4471    0.4482 C.ar    1  UNL1       -0.0010
     26 C           5.2817   -0.2838   -0.4556 C.ar    1  UNL1        0.1636
     27 N           6.2260    0.4325    0.1616 N.ar    1  UNL1       -0.2160
     28 C           7.4723    0.1728   -0.2250 C.ar    1  UNL1        0.1200
     29 N           7.8405   -0.7116   -1.1464 N.ar    1  UNL1       -0.2241
     30 C           6.8207   -1.3599   -1.6994 C.ar    1  UNL1        0.1200
     31 N           5.5332   -1.1918   -1.4084 N.ar    1  UNL1       -0.2160
     32 H           5.1265    0.8292    2.4049 H       1  UNL1        0.0813
     33 H           3.4166    1.5504    4.0680 H       1  UNL1        0.1648
     34 H           1.0700    1.3587    3.3138 H       1  UNL1        0.0813
     35 H           3.0622   -0.8488   -1.9402 H       1  UNL1        0.0631
     36 H           0.8376   -1.0239   -2.6306 H       1  UNL1        0.0624
     37 H          -1.5069   -0.7337   -2.3667 H       1  UNL1        0.0624
     38 H          -0.4865    2.0981    2.2116 H       1  UNL1        0.0624
     39 H          -2.8306    2.5148    2.3567 H       1  UNL1        0.0624
     40 H          -5.0612    2.2344    1.6158 H       1  UNL1        0.0624
     41 H          -6.7392    1.1595    0.2358 H       1  UNL1        0.0624
     42 H          -7.3984   -0.5034   -1.3656 H       1  UNL1        0.0624
     43 H          -6.8821   -2.4376   -2.7887 H       1  UNL1        0.0618
     44 H          -4.5515   -3.2803   -2.9144 H       1  UNL1        0.0618
     45 H          -2.7822   -2.1853   -1.6791 H       1  UNL1        0.0624
     46 H           8.2625    0.7373    0.2580 H       1  UNL1        0.1048
     47 H           7.0595   -2.0942   -2.4612 H       1  UNL1        0.1048
@<TRIPOS>BOND
     1     1     2   ar
     2     2     3   ar
     3     3     4   ar
     4     4     5   ar
     5     5     6   ar
     6     6     7   ar
     7     7     8   ar
     8     8     9   ar
     9     9    10   ar
    10    10    11   ar
    11    11    12   ar
    12    12    13   ar
    13    13    14   ar
    14    14    15   ar
    15    15    16   ar
    16    16    17   ar
    17    17    18   ar
    18    18    19   ar
    19    19    20   ar
    20    20    21   ar
    21    21    22   ar
    22    22    23   ar
    23    23    24   ar
    24    12    25   ar
    25     6    26    1
    26    26    27   ar
    27    27    28   ar
    28    28    29   ar
    29    29    30   ar
    30    30    31   ar
    31     5     1   ar
    32    25     8   ar
    33    31    26   ar
    34    25     4   ar
    35    24    11   ar
    36    24    15   ar
    37    23    18   ar
    38     1    32    1
    39     2    33    1
    40     3    34    1
    41     7    35    1
    42     9    36    1
    43    10    37    1
    44    13    38    1
    45    14    39    1
    46    16    40    1
    47    17    41    1
    48    19    42    1
    49    20    43    1
    50    21    44    1
    51    22    45    1
    52    28    46    1
    53    30    47    1
