@<TRIPOS>MOLECULE
*****
 47 54 0 0 0
SMALL
GASTEIGER

@<TRIPOS>ATOM
      1 C          -2.4924   -0.1280   -2.4652 C.ar    1  UNL1        0.0100
      2 N          -1.5637   -0.5272   -3.3931 N.ar    1  UNL1       -0.3659
      3 C          -0.3065   -0.5453   -2.8273 C.ar    1  UNL1        0.0100
      4 C          -0.4196   -0.1544   -1.5124 C.ar    1  UNL1        0.0088
      5 C          -1.8195    0.0989   -1.2885 C.ar    1  UNL1        0.0078
      6 C          -2.3869    0.5241   -0.0850 C.ar    1  UNL1       -0.0075
      7 C          -1.3849    0.6894    0.9024 C.ar    1  UNL1       -0.0456
      8 C           0.0215    0.4420    0.7132 C.ar    1  UNL1       -0.0156
      9 C           0.8807    0.6419    1.7833 C.ar    1  UNL1       -0.0534
     10 C           2.2555    0.4185    1.6643 C.ar    1  UNL1       -0.0523
     11 C           2.8392   -0.0215    0.4507 C.ar    1  UNL1       -0.0018
     12 C           1.9835   -0.2315   -0.6517 C.ar    1  UNL1        0.0288
     13 S           2.8927   -0.7669   -2.0303 S.2     1  UNL1       -0.0876
     14 C           4.3988   -0.7325   -1.2225 C.ar    1  UNL1        0.0212
     15 C           5.6838   -1.0675   -1.7572 C.ar    1  UNL1       -0.0467
     16 C           6.8601   -0.9995   -0.9877 C.ar    1  UNL1       -0.0499
     17 C           6.5936   -0.5793    0.3022 C.ar    1  UNL1        0.0205
     18 C           7.5323   -0.4136    1.2910 C.ar    1  UNL1        0.0994
     19 O           6.9273    0.0126    2.4453 O.2     1  UNL1       -0.4698
     20 C           5.5818    0.1207    2.1902 C.ar    1  UNL1        0.1000
     21 C           5.3671   -0.2355    0.8938 C.ar    1  UNL1        0.0286
     22 C           4.1830   -0.3156    0.0798 C.ar    1  UNL1        0.0076
     23 C           0.5845   -0.0044   -0.5322 C.ar    1  UNL1        0.0056
     24 C          -3.7904    0.7799    0.1354 C.ar    1  UNL1       -0.0065
     25 C          -4.3519    2.0605    0.3895 C.ar    1  UNL1       -0.0533
     26 C          -5.7543    2.3078    0.6218 C.ar    1  UNL1       -0.0605
     27 C          -6.7494    1.3032    0.6338 C.ar    1  UNL1       -0.0510
     28 C          -6.1775    0.0618    0.3946 C.ar    1  UNL1        0.0204
     29 C          -6.8206   -1.1455    0.3438 C.ar    1  UNL1        0.0994
     30 O          -5.9095   -2.1372    0.0981 O.2     1  UNL1       -0.4698
     31 C          -4.6772   -1.5494   -0.0062 C.ar    1  UNL1        0.1000
     32 C          -4.7939   -0.1928    0.1609 C.ar    1  UNL1        0.0276
     33 H          -3.5374   -0.0451   -2.7333 H       1  UNL1        0.0813
     34 H          -1.7687   -0.7669   -4.3545 H       1  UNL1        0.1648
     35 H           0.5298   -0.8349   -3.4441 H       1  UNL1        0.0813
     36 H          -1.7175    1.0226    1.8885 H       1  UNL1        0.0630
     37 H           0.4979    0.9786    2.7455 H       1  UNL1        0.0624
     38 H           2.8685    0.5943    2.5415 H       1  UNL1        0.0624
     39 H           5.7540   -1.3864   -2.7965 H       1  UNL1        0.0629
     40 H           7.8361   -1.2500   -1.3806 H       1  UNL1        0.0625
     41 H           8.6039   -0.5419    1.3527 H       1  UNL1        0.1035
     42 H           4.9877    0.4509    3.0273 H       1  UNL1        0.1036
     43 H          -3.6833    2.9234    0.4023 H       1  UNL1        0.0624
     44 H          -6.0622    3.3393    0.7994 H       1  UNL1        0.0618
     45 H          -7.7969    1.4986    0.8114 H       1  UNL1        0.0625
     46 H          -7.8447   -1.4720    0.4548 H       1  UNL1        0.1035
     47 H          -3.8543   -2.2241   -0.1969 H       1  UNL1        0.1036
@<TRIPOS>BOND
     1     1     2   ar
     2     2     3   ar
     3     3     4   ar
     4     4     5   ar
     5     5     6   ar
     6     6     7   ar
     7     7     8   ar
     8     8     9   ar
     9     9    10   ar
    10    10    11   ar
    11    11    12   ar
    12    12    13   ar
    13    13    14   ar
    14    14    15   ar
    15    15    16   ar
    16    16    17   ar
    17    17    18   ar
    18    18    19   ar
    19    19    20   ar
    20    20    21   ar
    21    21    22   ar
    22    12    23   ar
    23     6    24    1
    24    24    25   ar
    25    25    26   ar
    26    26    27   ar
    27    27    28   ar
    28    28    29   ar
    29    29    30   ar
    30    30    31   ar
    31    31    32   ar
    32     5     1   ar
    33    23     8   ar
    34    32    24   ar
    35    23     4   ar
    36    32    28   ar
    37    22    11   ar
    38    22    14   ar
    39    21    17   ar
    40     1    33    1
    41     2    34    1
    42     3    35    1
    43     7    36    1
    44     9    37    1
    45    10    38    1
    46    15    39    1
    47    16    40    1
    48    18    41    1
    49    20    42    1
    50    25    43    1
    51    26    44    1
    52    27    45    1
    53    29    46    1
    54    31    47    1
