@<TRIPOS>MOLECULE
*****
 36 40 0 0 0
SMALL
GASTEIGER

@<TRIPOS>ATOM
      1 SI          2.9143   -1.0119    0.3184 Si      1  UNL1        0.0000
      2 C           1.5551    0.1769   -0.2766 C.2     1  UNL1        0.0000
      3 C           2.0618    1.4102   -0.4847 C.2     1  UNL1        0.0000
      4 C           3.4859    1.5597   -0.2116 C.2     1  UNL1        0.0000
      5 C           4.1224    0.4430    0.2070 C.2     1  UNL1        0.0000
      6 C           5.5008    0.3308    0.5234 C.ar    1  UNL1        0.0000
      7 C           6.3729   -0.7466    0.4035 C.ar    1  UNL1        0.0000
      8 N           7.6756   -0.5490    0.8207 N.ar    1  UNL1        0.0000
      9 C           7.8031    0.6844    1.2525 C.ar    1  UNL1        0.0000
     10 S           6.3968    1.6552    1.1931 S.2     1  UNL1        0.0000
     11 C           0.2054   -0.2584   -0.4634 C.2     1  UNL1        0.0000
     12 SI         -1.1935    0.2946    0.7195 Si      1  UNL1        0.0000
     13 C          -2.3592   -0.7236   -0.3456 C.2     1  UNL1        0.0000
     14 C          -1.7122   -1.3347   -1.3584 C.2     1  UNL1        0.0000
     15 C          -0.2817   -1.0676   -1.4281 C.2     1  UNL1        0.0000
     16 C          -3.7352   -0.8391   -0.0892 C.ar    1  UNL1        0.0000
     17 S          -4.4590   -2.2434    0.6093 S.2     1  UNL1        0.0000
     18 C          -6.0425   -1.5626    0.5782 C.ar    1  UNL1        0.0000
     19 C          -5.9566   -0.3308    0.0301 C.ar    1  UNL1        0.0000
     20 C          -6.9148    0.6680   -0.2638 C.ar    1  UNL1        0.0000
     21 C          -6.3388    1.8046   -0.8443 C.ar    1  UNL1        0.0000
     22 S          -4.5951    1.7649   -1.0798 S.2     1  UNL1        0.0000
     23 C          -4.6893    0.1112   -0.3509 C.ar    1  UNL1        0.0000
     24 H           2.6971   -1.4753    1.7165 H       1  UNL1        0.0000
     25 H           3.2283   -2.0720   -0.6783 H       1  UNL1        0.0000
     26 H           1.4832    2.2557   -0.8412 H       1  UNL1        0.0000
     27 H           3.9589    2.5240   -0.3647 H       1  UNL1        0.0000
     28 H           6.1093   -1.7219    0.0048 H       1  UNL1        0.0000
     29 H           8.7418    1.0699    1.6286 H       1  UNL1        0.0000
     30 H          -1.0002   -0.2760    2.0782 H       1  UNL1        0.0000
     31 H          -1.4321    1.7593    0.6518 H       1  UNL1        0.0000
     32 H          -2.1877   -1.9798   -2.0890 H       1  UNL1        0.0000
     33 H           0.3175   -1.5041   -2.2198 H       1  UNL1        0.0000
     34 H          -6.8991   -2.1066    0.9482 H       1  UNL1        0.0000
     35 H          -7.9788    0.5878   -0.0736 H       1  UNL1        0.0000
     36 H          -6.8546    2.7032   -1.1571 H       1  UNL1        0.0000
@<TRIPOS>BOND
     1     1     2    1
     2     2     3    2
     3     3     4    1
     4     4     5    2
     5     5     6    1
     6     6     7   ar
     7     7     8   ar
     8     8     9   ar
     9     9    10   ar
    10     2    11    1
    11    11    12    1
    12    12    13    1
    13    13    14    2
    14    14    15    1
    15    13    16    1
    16    16    17   ar
    17    17    18   ar
    18    18    19   ar
    19    19    20   ar
    20    20    21   ar
    21    21    22   ar
    22    22    23   ar
    23     5     1    1
    24    10     6   ar
    25    15    11    2
    26    23    16   ar
    27    23    19   ar
    28     1    24    1
    29     1    25    1
    30     3    26    1
    31     4    27    1
    32     7    28    1
    33     9    29    1
    34    12    30    1
    35    12    31    1
    36    14    32    1
    37    15    33    1
    38    18    34    1
    39    20    35    1
    40    21    36    1
