@<TRIPOS>MOLECULE
*****
 44 50 0 0 0
SMALL
GASTEIGER

@<TRIPOS>ATOM
      1 C          -1.7683   -1.4602    1.8925 C.ar    1  UNL1        0.0100
      2 N          -0.7312   -1.8120    2.7246 N.ar    1  UNL1       -0.3659
      3 C           0.4649   -1.3850    2.1947 C.ar    1  UNL1        0.0101
      4 C           0.1969   -0.7478    1.0058 C.ar    1  UNL1        0.0098
      5 C          -1.2252   -0.7880    0.8231 C.ar    1  UNL1        0.0078
      6 C          -1.9182   -0.2543   -0.2654 C.ar    1  UNL1       -0.0074
      7 C          -1.0104    0.3290   -1.1833 C.ar    1  UNL1       -0.0441
      8 C           0.4258    0.3827   -1.0159 C.ar    1  UNL1        0.0035
      9 C           1.2167    0.9874   -1.9760 C.ar    1  UNL1        0.0361
     10 N           2.5628    1.0899   -1.9156 N.ar    1  UNL1       -0.2522
     11 C           3.2133    0.5720   -0.8457 C.ar    1  UNL1        0.0989
     12 C           4.6136    0.6683   -0.7623 C.ar    1  UNL1        0.0291
     13 C           5.3949    1.2843   -1.7461 C.ar    1  UNL1        0.0374
     14 N           6.7473    1.4009   -1.7092 N.ar    1  UNL1       -0.2626
     15 C           7.3729    0.8795   -0.6370 C.ar    1  UNL1        0.0282
     16 C           6.7119    0.2468    0.3999 C.ar    1  UNL1       -0.0344
     17 C           5.3147    0.1412    0.3338 C.ar    1  UNL1        0.0052
     18 C           4.5646   -0.4737    1.3214 C.ar    1  UNL1        0.0362
     19 N           3.2224   -0.5877    1.2804 N.ar    1  UNL1       -0.2522
     20 C           2.5483   -0.0759    0.2177 C.ar    1  UNL1        0.0981
     21 C           1.1320   -0.1579    0.1054 C.ar    1  UNL1        0.0202
     22 C          -3.3486   -0.2965   -0.4523 C.ar    1  UNL1       -0.0065
     23 C          -4.0117   -1.0234   -1.4780 C.ar    1  UNL1       -0.0533
     24 C          -5.4417   -1.0506   -1.6685 C.ar    1  UNL1       -0.0605
     25 C          -6.3667   -0.3489   -0.8615 C.ar    1  UNL1       -0.0510
     26 C          -5.6973    0.3610    0.1250 C.ar    1  UNL1        0.0204
     27 C          -6.2543    1.1651    1.0825 C.ar    1  UNL1        0.0994
     28 O          -5.2635    1.6997    1.8611 O.2     1  UNL1       -0.4698
     29 C          -4.0676    1.2285    1.3893 C.ar    1  UNL1        0.1000
     30 C          -4.2854    0.3920    0.3240 C.ar    1  UNL1        0.0276
     31 H          -2.7868   -1.7239    2.1452 H       1  UNL1        0.0813
     32 H          -0.8304   -2.3169    3.5958 H       1  UNL1        0.1648
     33 H           1.3903   -1.5839    2.7181 H       1  UNL1        0.0813
     34 H          -1.4369    0.7816   -2.0821 H       1  UNL1        0.0630
     35 H           0.7808    1.4318   -2.8685 H       1  UNL1        0.0836
     36 H           4.9357    1.7210   -2.6313 H       1  UNL1        0.0836
     37 H           8.4539    0.9869   -0.6329 H       1  UNL1        0.0830
     38 H           7.2754   -0.1524    1.2366 H       1  UNL1        0.0639
     39 H           5.0280   -0.9079    2.2035 H       1  UNL1        0.0836
     40 H          -3.4054   -1.6132   -2.1681 H       1  UNL1        0.0624
     41 H          -5.8302   -1.6538   -2.4906 H       1  UNL1        0.0618
     42 H          -7.4359   -0.3739   -1.0142 H       1  UNL1        0.0625
     43 H          -7.2607    1.4599    1.3430 H       1  UNL1        0.1035
     44 H          -3.1903    1.5783    1.9154 H       1  UNL1        0.1036
@<TRIPOS>BOND
     1     1     2   ar
     2     2     3   ar
     3     3     4   ar
     4     4     5   ar
     5     5     6   ar
     6     6     7   ar
     7     7     8   ar
     8     8     9   ar
     9     9    10   ar
    10    10    11   ar
    11    11    12   ar
    12    12    13   ar
    13    13    14   ar
    14    14    15   ar
    15    15    16   ar
    16    16    17   ar
    17    17    18   ar
    18    18    19   ar
    19    19    20   ar
    20    20    21   ar
    21     6    22    1
    22    22    23   ar
    23    23    24   ar
    24    24    25   ar
    25    25    26   ar
    26    26    27   ar
    27    27    28   ar
    28    28    29   ar
    29    29    30   ar
    30     5     1   ar
    31    21     8   ar
    32    30    22   ar
    33    21     4   ar
    34    30    26   ar
    35    20    11   ar
    36    17    12   ar
    37     1    31    1
    38     2    32    1
    39     3    33    1
    40     7    34    1
    41     9    35    1
    42    13    36    1
    43    15    37    1
    44    16    38    1
    45    18    39    1
    46    23    40    1
    47    24    41    1
    48    25    42    1
    49    27    43    1
    50    29    44    1
