@<TRIPOS>MOLECULE
*****
 43 49 0 0 0
SMALL
GASTEIGER

@<TRIPOS>ATOM
      1 C           1.4012    2.0578    1.3353 C.ar    1  UNL1        0.0100
      2 N           0.1435    2.3855    1.7815 N.ar    1  UNL1       -0.3659
      3 C          -0.7546    1.4149    1.4023 C.ar    1  UNL1        0.0100
      4 C          -0.0962    0.5044    0.6068 C.ar    1  UNL1        0.0084
      5 C           1.2981    0.8569    0.6720 C.ar    1  UNL1        0.0078
      6 C           2.3543    0.1004    0.1624 C.ar    1  UNL1       -0.0045
      7 C           1.8513   -1.1217   -0.3419 C.ar    1  UNL1       -0.0441
      8 C           0.4571   -1.5043   -0.3804 C.ar    1  UNL1        0.0021
      9 C           0.1291   -2.7897   -0.7674 C.ar    1  UNL1        0.0360
     10 N          -1.1165   -3.3065   -0.7685 N.ar    1  UNL1       -0.2543
     11 C          -2.1478   -2.4971   -0.5017 C.ar    1  UNL1        0.0722
     12 C          -3.3920   -3.0971   -0.5117 C.ar    1  UNL1       -0.0351
     13 C          -4.5620   -2.3722   -0.3202 C.ar    1  UNL1       -0.0520
     14 C          -4.5104   -0.9871   -0.2208 C.ar    1  UNL1       -0.0172
     15 C          -5.7109   -0.2582   -0.1599 C.ar    1  UNL1       -0.0540
     16 C          -5.7052    1.1321   -0.1876 C.ar    1  UNL1       -0.0612
     17 C          -4.4991    1.8011   -0.3096 C.ar    1  UNL1       -0.0611
     18 C          -3.3029    1.0766   -0.3487 C.ar    1  UNL1       -0.0534
     19 C          -3.2524   -0.3330   -0.2336 C.ar    1  UNL1       -0.0081
     20 C          -2.0254   -1.1179   -0.2275 C.ar    1  UNL1        0.0164
     21 C          -0.6466   -0.6698   -0.0070 C.ar    1  UNL1        0.0025
     22 C           3.7593    0.4483    0.2262 C.ar    1  UNL1        0.0290
     23 C           4.4521    0.7727    1.4024 C.ar    1  UNL1        0.0375
     24 N           5.7775    1.1095    1.5456 N.ar    1  UNL1       -0.2604
     25 C           6.6030    1.1502    0.4611 C.ar    1  UNL1        0.0557
     26 C           6.0585    0.8330   -0.7982 C.ar    1  UNL1        0.1185
     27 N           6.7153    0.8133   -1.9694 N.ar    1  UNL1       -0.1892
     28 S           5.6028    0.3798   -3.1218 S.2     1  UNL1        0.1165
     29 N           4.2468    0.1909   -2.1873 N.ar    1  UNL1       -0.1901
     30 C           4.5995    0.4695   -0.9180 C.ar    1  UNL1        0.1105
     31 H           2.2417    2.6959    1.5732 H       1  UNL1        0.0813
     32 H          -0.0810    3.1931    2.3490 H       1  UNL1        0.1648
     33 H          -1.7753    1.4737    1.7533 H       1  UNL1        0.0813
     34 H           2.5839   -1.8471   -0.7065 H       1  UNL1        0.0630
     35 H           0.8958   -3.5044   -1.0587 H       1  UNL1        0.0836
     36 H          -3.4564   -4.1709   -0.6764 H       1  UNL1        0.0639
     37 H          -5.5124   -2.9007   -0.3258 H       1  UNL1        0.0624
     38 H          -6.6685   -0.7741   -0.1219 H       1  UNL1        0.0624
     39 H          -6.6401    1.6845   -0.1567 H       1  UNL1        0.0618
     40 H          -4.4797    2.8845   -0.3924 H       1  UNL1        0.0618
     41 H          -2.3911    1.6407   -0.5271 H       1  UNL1        0.0624
     42 H           3.9177    0.7625    2.3541 H       1  UNL1        0.0836
     43 H           7.6382    1.4200    0.6212 H       1  UNL1        0.0852
@<TRIPOS>BOND
     1     1     2   ar
     2     2     3   ar
     3     3     4   ar
     4     4     5   ar
     5     5     6   ar
     6     6     7   ar
     7     7     8   ar
     8     8     9   ar
     9     9    10   ar
    10    10    11   ar
    11    11    12   ar
    12    12    13   ar
    13    13    14   ar
    14    14    15   ar
    15    15    16   ar
    16    16    17   ar
    17    17    18   ar
    18    18    19   ar
    19    19    20   ar
    20    20    21   ar
    21     6    22    1
    22    22    23   ar
    23    23    24   ar
    24    24    25   ar
    25    25    26   ar
    26    26    27   ar
    27    27    28   ar
    28    28    29   ar
    29    29    30   ar
    30     5     1   ar
    31    21     8   ar
    32    30    22   ar
    33    21     4   ar
    34    30    26   ar
    35    20    11   ar
    36    19    14   ar
    37     1    31    1
    38     2    32    1
    39     3    33    1
    40     7    34    1
    41     9    35    1
    42    12    36    1
    43    13    37    1
    44    15    38    1
    45    16    39    1
    46    17    40    1
    47    18    41    1
    48    23    42    1
    49    25    43    1
