@<TRIPOS>MOLECULE
*****
 42 48 0 0 0
SMALL
GASTEIGER

@<TRIPOS>ATOM
      1 C           2.8638   -1.5152   -1.5937 C.ar    1  UNL1        0.0100
      2 N           1.9954   -2.3375   -2.2824 N.ar    1  UNL1       -0.3659
      3 C           0.6899   -2.0617   -1.9230 C.ar    1  UNL1        0.0101
      4 C           0.7655   -1.0501   -1.0140 C.ar    1  UNL1        0.0113
      5 C           2.1159   -0.6872   -0.7838 C.ar    1  UNL1        0.0080
      6 C           2.6272    0.2779    0.0974 C.ar    1  UNL1       -0.0038
      7 C           1.6092    0.9262    0.8328 C.ar    1  UNL1       -0.0103
      8 C           0.2543    0.5909    0.6216 C.ar    1  UNL1        0.1376
      9 O          -0.7960    1.1617    1.2876 O.2     1  UNL1       -0.4526
     10 C          -1.9535    0.5864    0.8116 C.ar    1  UNL1        0.1627
     11 C          -1.6101   -0.3451   -0.1670 C.ar    1  UNL1        0.0414
     12 C          -2.7074   -1.0114   -0.7833 C.ar    1  UNL1        0.0319
     13 C          -2.8013   -1.9314   -1.7791 C.ar    1  UNL1        0.1001
     14 O          -4.1296   -2.2204   -1.9718 O.2     1  UNL1       -0.4698
     15 C          -4.8505   -1.4603   -1.0903 C.ar    1  UNL1        0.1000
     16 C          -4.0057   -0.6837   -0.3330 C.ar    1  UNL1        0.0298
     17 C          -4.3862    0.2400    0.6646 C.ar    1  UNL1        0.0147
     18 C          -5.6744    0.5782    1.1259 C.ar    1  UNL1       -0.0503
     19 C          -5.7957    1.5371    2.1271 C.ar    1  UNL1       -0.0430
     20 C          -4.6417    2.1245    2.6315 C.ar    1  UNL1        0.0284
     21 N          -3.3885    1.8293    2.2163 N.ar    1  UNL1       -0.2512
     22 C          -3.2722    0.8944    1.2428 C.ar    1  UNL1        0.1144
     23 C          -0.2325   -0.3535   -0.2722 C.ar    1  UNL1        0.0378
     24 C           4.0429    0.5790    0.2567 C.ar    1  UNL1        0.0010
     25 C           4.7895    1.1804   -0.7631 C.ar    1  UNL1       -0.0511
     26 C           6.1397    1.4646   -0.5691 C.ar    1  UNL1       -0.0430
     27 C           6.7102    1.1393    0.6496 C.ar    1  UNL1        0.0276
     28 N           6.0326    0.5615    1.6630 N.ar    1  UNL1       -0.2627
     29 C           4.7207    0.2991    1.4428 C.ar    1  UNL1        0.0353
     30 H           3.9313   -1.6129   -1.7420 H       1  UNL1        0.0813
     31 H           2.2769   -3.0532   -2.9404 H       1  UNL1        0.1648
     32 H          -0.1070   -2.6400   -2.3537 H       1  UNL1        0.0813
     33 H           1.8553    1.6959    1.5599 H       1  UNL1        0.0661
     34 H          -2.1334   -2.4612   -2.4344 H       1  UNL1        0.1036
     35 H          -5.9222   -1.5915   -1.1440 H       1  UNL1        0.1036
     36 H          -6.5607    0.1062    0.7145 H       1  UNL1        0.0625
     37 H          -6.7693    1.8247    2.5093 H       1  UNL1        0.0633
     38 H          -4.6980    2.8775    3.4135 H       1  UNL1        0.0830
     39 H           4.3184    1.4344   -1.7099 H       1  UNL1        0.0625
     40 H           6.7297    1.9321   -1.3492 H       1  UNL1        0.0633
     41 H           7.7584    1.3424    0.8497 H       1  UNL1        0.0829
     42 H           4.2092   -0.1674    2.2816 H       1  UNL1        0.0836
@<TRIPOS>BOND
     1     1     2   ar
     2     2     3   ar
     3     3     4   ar
     4     4     5   ar
     5     5     6   ar
     6     6     7   ar
     7     7     8   ar
     8     8     9   ar
     9     9    10   ar
    10    10    11   ar
    11    11    12   ar
    12    12    13   ar
    13    13    14   ar
    14    14    15   ar
    15    15    16   ar
    16    16    17   ar
    17    17    18   ar
    18    18    19   ar
    19    19    20   ar
    20    20    21   ar
    21    21    22   ar
    22    11    23   ar
    23     6    24    1
    24    24    25   ar
    25    25    26   ar
    26    26    27   ar
    27    27    28   ar
    28    28    29   ar
    29     5     1   ar
    30    23     8   ar
    31    29    24   ar
    32    23     4   ar
    33    22    10   ar
    34    16    12   ar
    35    22    17   ar
    36     1    30    1
    37     2    31    1
    38     3    32    1
    39     7    33    1
    40    13    34    1
    41    15    35    1
    42    18    36    1
    43    19    37    1
    44    20    38    1
    45    25    39    1
    46    26    40    1
    47    27    41    1
    48    29    42    1
