@<TRIPOS>MOLECULE
*****
 46 53 0 0 0
SMALL
GASTEIGER

@<TRIPOS>ATOM
      1 C           2.1019   -2.2098   -0.2927 C.ar    1  UNL1        0.0100
      2 N           1.1112   -3.1265   -0.5751 N.ar    1  UNL1       -0.3659
      3 C          -0.1266   -2.5191   -0.5104 C.ar    1  UNL1        0.0100
      4 C           0.1075   -1.2353   -0.1106 C.ar    1  UNL1        0.0088
      5 C           1.4972   -0.9964   -0.0416 C.ar    1  UNL1        0.0078
      6 C           2.1650    0.2067    0.1848 C.ar    1  UNL1       -0.0071
      7 C           1.2649    1.2857    0.2920 C.ar    1  UNL1       -0.0390
      8 C          -0.1516    1.1106    0.2241 C.ar    1  UNL1        0.0217
      9 S          -1.3361    2.3652    0.2260 S.2     1  UNL1       -0.0875
     10 C          -2.6785    1.2608    0.1593 C.ar    1  UNL1        0.0303
     11 C          -2.1793   -0.0443    0.2029 C.ar    1  UNL1        0.0089
     12 C          -3.1743   -1.0665    0.3711 C.ar    1  UNL1        0.0293
     13 C          -3.0870   -2.3865    0.6936 C.ar    1  UNL1        0.1000
     14 O          -4.3549   -2.9016    0.7603 O.2     1  UNL1       -0.4698
     15 C          -5.2250   -1.8706    0.5316 C.ar    1  UNL1        0.1000
     16 C          -4.5320   -0.6991    0.3277 C.ar    1  UNL1        0.0283
     17 C          -5.0942    0.5786    0.1666 C.ar    1  UNL1       -0.0032
     18 C          -6.4603    0.9206    0.1125 C.ar    1  UNL1       -0.0352
     19 C          -6.7829    2.2600   -0.0029 C.ar    1  UNL1        0.0282
     20 N          -5.8697    3.2532   -0.0596 N.ar    1  UNL1       -0.2626
     21 C          -4.5600    2.8976   -0.0022 C.ar    1  UNL1        0.0364
     22 C          -4.0941    1.5807    0.1056 C.ar    1  UNL1        0.0152
     23 C          -0.7826   -0.1240    0.1094 C.ar    1  UNL1        0.0068
     24 C           3.6026    0.3552    0.2403 C.ar    1  UNL1       -0.0090
     25 C           4.3345    0.4614    1.4512 C.ar    1  UNL1       -0.0534
     26 C           5.7574    0.6162    1.5237 C.ar    1  UNL1       -0.0606
     27 C           6.6004    0.6858    0.3946 C.ar    1  UNL1       -0.0535
     28 C           5.8808    0.5878   -0.7959 C.ar    1  UNL1       -0.0103
     29 C           6.4862    0.6351   -2.0273 C.ar    1  UNL1       -0.0166
     30 S           5.3329    0.4937   -3.2940 S.2     1  UNL1       -0.1039
     31 C           4.0211    0.3721   -2.1884 C.ar    1  UNL1       -0.0160
     32 C           4.4485    0.4308   -0.8814 C.ar    1  UNL1       -0.0032
     33 H           3.1426   -2.5041   -0.3376 H       1  UNL1        0.0813
     34 H           1.2732   -4.0890   -0.8430 H       1  UNL1        0.1648
     35 H          -1.0066   -3.0704   -0.8017 H       1  UNL1        0.0813
     36 H           1.6632    2.2936    0.4071 H       1  UNL1        0.0635
     37 H          -2.3026   -3.0853    0.9371 H       1  UNL1        0.1036
     38 H          -6.2710   -2.1374    0.5856 H       1  UNL1        0.1036
     39 H          -7.2425    0.1732    0.1632 H       1  UNL1        0.0639
     40 H          -7.8190    2.5838   -0.0501 H       1  UNL1        0.0830
     41 H          -3.8798    3.7436   -0.0544 H       1  UNL1        0.0836
     42 H           3.7844    0.4182    2.3930 H       1  UNL1        0.0624
     43 H           6.2120    0.6844    2.5127 H       1  UNL1        0.0618
     44 H           7.6731    0.8041    0.4704 H       1  UNL1        0.0624
     45 H           7.5352    0.7455   -2.2645 H       1  UNL1        0.0699
     46 H           3.0147    0.2615   -2.5689 H       1  UNL1        0.0700
@<TRIPOS>BOND
     1     1     2   ar
     2     2     3   ar
     3     3     4   ar
     4     4     5   ar
     5     5     6   ar
     6     6     7   ar
     7     7     8   ar
     8     8     9   ar
     9     9    10   ar
    10    10    11   ar
    11    11    12   ar
    12    12    13   ar
    13    13    14   ar
    14    14    15   ar
    15    15    16   ar
    16    16    17   ar
    17    17    18   ar
    18    18    19   ar
    19    19    20   ar
    20    20    21   ar
    21    21    22   ar
    22    11    23   ar
    23     6    24    1
    24    24    25   ar
    25    25    26   ar
    26    26    27   ar
    27    27    28   ar
    28    28    29   ar
    29    29    30   ar
    30    30    31   ar
    31    31    32   ar
    32     5     1   ar
    33    23     8   ar
    34    32    24   ar
    35    23     4   ar
    36    32    28   ar
    37    22    10   ar
    38    16    12   ar
    39    22    17   ar
    40     1    33    1
    41     2    34    1
    42     3    35    1
    43     7    36    1
    44    13    37    1
    45    15    38    1
    46    18    39    1
    47    19    40    1
    48    21    41    1
    49    25    42    1
    50    26    43    1
    51    27    44    1
    52    29    45    1
    53    31    46    1
