@<TRIPOS>MOLECULE
*****
 43 49 0 0 0
SMALL
GASTEIGER

@<TRIPOS>ATOM
      1 C          -2.0740   -1.9077    1.8897 C.ar    1  UNL1        0.0100
      2 N          -3.2228   -2.5643    2.2802 N.ar    1  UNL1       -0.3659
      3 C          -4.2483   -2.2835    1.4005 C.ar    1  UNL1        0.0100
      4 C          -3.7507   -1.4423    0.4280 C.ar    1  UNL1        0.0078
      5 C          -2.3810   -1.2812    0.7168 C.ar    1  UNL1        0.0088
      6 C          -1.5969   -0.4297   -0.1393 C.ar    1  UNL1        0.0074
      7 C          -2.3247    0.2810   -1.0978 C.ar    1  UNL1        0.0303
      8 S          -1.2651    1.4408   -1.8474 S.2     1  UNL1       -0.0875
      9 C           0.1250    0.9115   -0.9741 C.ar    1  UNL1        0.0218
     10 C           1.4461    1.4521   -1.0733 C.ar    1  UNL1       -0.0390
     11 C           2.5492    0.8993   -0.3871 C.ar    1  UNL1       -0.0061
     12 C           3.9074    1.4238   -0.4676 C.ar    1  UNL1       -0.0172
     13 C           4.5812    1.4883   -1.6975 C.ar    1  UNL1       -0.0540
     14 C           5.8805    1.9956   -1.7786 C.ar    1  UNL1       -0.0612
     15 C           6.5243    2.4508   -0.6305 C.ar    1  UNL1       -0.0617
     16 C           5.8699    2.4007    0.5978 C.ar    1  UNL1       -0.0612
     17 C           4.5709    1.8925    0.6777 C.ar    1  UNL1       -0.0540
     18 C           2.1772   -0.2475    0.3122 C.ar    1  UNL1        0.0282
     19 C           3.0264   -1.1122    0.9662 C.ar    1  UNL1        0.1000
     20 O           2.3331   -2.1912    1.4433 O.2     1  UNL1       -0.4698
     21 C           1.0203   -2.0208    1.0897 C.ar    1  UNL1        0.1000
     22 C           0.8976   -0.8237    0.4531 C.ar    1  UNL1        0.0292
     23 C          -0.2203   -0.1653   -0.1640 C.ar    1  UNL1        0.0083
     24 C          -3.7359    0.0679   -1.3566 C.ar    1  UNL1        0.0152
     25 C          -4.4229    0.7524   -2.3685 C.ar    1  UNL1        0.0364
     26 N          -5.7396    0.5893   -2.6593 N.ar    1  UNL1       -0.2626
     27 C          -6.4298   -0.2964   -1.9092 C.ar    1  UNL1        0.0282
     28 C          -5.8768   -1.0301   -0.8760 C.ar    1  UNL1       -0.0352
     29 C          -4.5080   -0.8444   -0.5967 C.ar    1  UNL1       -0.0048
     30 H          -1.2017   -1.9354    2.5238 H       1  UNL1        0.0813
     31 H          -3.3149   -3.1235    3.1190 H       1  UNL1        0.1648
     32 H          -5.2367   -2.6829    1.5819 H       1  UNL1        0.0813
     33 H           1.6052    2.3221   -1.7105 H       1  UNL1        0.0635
     34 H           4.0976    1.1320   -2.6051 H       1  UNL1        0.0624
     35 H           6.3887    2.0339   -2.7387 H       1  UNL1        0.0618
     36 H           7.5347    2.8464   -0.6935 H       1  UNL1        0.0618
     37 H           6.3678    2.7601    1.4947 H       1  UNL1        0.0618
     38 H           4.0722    1.8716    1.6450 H       1  UNL1        0.0624
     39 H           4.0930   -1.1383    1.1433 H       1  UNL1        0.1036
     40 H           0.3756   -2.8497    1.3348 H       1  UNL1        0.1036
     41 H          -3.9259    1.4763   -3.0087 H       1  UNL1        0.0836
     42 H          -7.4797   -0.4004   -2.1685 H       1  UNL1        0.0830
     43 H          -6.4879   -1.7179   -0.3052 H       1  UNL1        0.0639
@<TRIPOS>BOND
     1     1     2   ar
     2     2     3   ar
     3     3     4   ar
     4     4     5   ar
     5     5     6   ar
     6     6     7   ar
     7     7     8   ar
     8     8     9   ar
     9     9    10   ar
    10    10    11   ar
    11    11    12    1
    12    12    13   ar
    13    13    14   ar
    14    14    15   ar
    15    15    16   ar
    16    16    17   ar
    17    11    18   ar
    18    18    19   ar
    19    19    20   ar
    20    20    21   ar
    21    21    22   ar
    22    22    23   ar
    23     7    24   ar
    24    24    25   ar
    25    25    26   ar
    26    26    27   ar
    27    27    28   ar
    28    28    29   ar
    29     5     1   ar
    30    23     6   ar
    31    29    24   ar
    32    29     4   ar
    33    23     9   ar
    34    17    12   ar
    35    22    18   ar
    36     1    30    1
    37     2    31    1
    38     3    32    1
    39    10    33    1
    40    13    34    1
    41    14    35    1
    42    15    36    1
    43    16    37    1
    44    17    38    1
    45    19    39    1
    46    21    40    1
    47    25    41    1
    48    27    42    1
    49    28    43    1
