@<TRIPOS>MOLECULE
*****
 40 46 0 0 0
SMALL
GASTEIGER

@<TRIPOS>ATOM
      1 C          -1.4312    1.5106    2.2554 C.ar    1  UNL1        0.0101
      2 N          -2.6238    1.8476    2.8667 N.ar    1  UNL1       -0.3659
      3 C          -3.6926    1.2669    2.2003 C.ar    1  UNL1        0.0100
      4 C          -3.1911    0.5418    1.1406 C.ar    1  UNL1        0.0079
      5 C          -1.7965    0.7184    1.2109 C.ar    1  UNL1        0.0111
      6 C          -1.0558    0.0600    0.2133 C.ar    1  UNL1        0.0333
      7 C           0.3192    0.0639    0.0483 C.ar    1  UNL1        0.0732
      8 N           1.5098    0.5200    0.5283 N.ar    1  UNL1       -0.3523
      9 C           2.5357    0.0318   -0.2704 C.ar    1  UNL1        0.0525
     10 C           1.9541   -0.7478   -1.2707 C.ar    1  UNL1       -0.0123
     11 C           0.5585   -0.7077   -1.0427 C.ar    1  UNL1        0.0659
     12 N          -0.6398   -1.1801   -1.5442 N.ar    1  UNL1       -0.3524
     13 C          -1.6757   -0.7012   -0.7571 C.ar    1  UNL1        0.0574
     14 C          -3.0997   -0.8574   -0.7956 C.ar    1  UNL1        0.0067
     15 C          -3.7076   -1.6381   -1.7943 C.ar    1  UNL1       -0.0520
     16 C          -5.0986   -1.7832   -1.8216 C.ar    1  UNL1       -0.0611
     17 C          -5.9017   -1.1587   -0.8629 C.ar    1  UNL1       -0.0611
     18 C          -5.3277   -0.3773    0.1409 C.ar    1  UNL1       -0.0533
     19 C          -3.9266   -0.2165    0.1885 C.ar    1  UNL1       -0.0068
     20 C           3.9486    0.3478   -0.0107 C.ar    1  UNL1        0.0446
     21 C           4.3997    1.1567    1.0464 C.ar    1  UNL1        0.0389
     22 N           5.6894    1.5088    1.3710 N.ar    1  UNL1       -0.2603
     23 C           6.7347    1.0597    0.6237 C.ar    1  UNL1        0.0557
     24 C           6.4543    0.2324   -0.4799 C.ar    1  UNL1        0.1185
     25 N           7.3595   -0.2963   -1.3194 N.ar    1  UNL1       -0.1892
     26 S           6.5048   -1.1803   -2.4298 S.2     1  UNL1        0.1165
     27 N           4.9583   -0.9321   -1.8967 N.ar    1  UNL1       -0.1900
     28 C           5.0230   -0.1371   -0.8109 C.ar    1  UNL1        0.1119
     29 H          -0.4859    1.8699    2.6326 H       1  UNL1        0.0813
     30 H          -2.7092    2.4352    3.6857 H       1  UNL1        0.1648
     31 H          -4.7006    1.4330    2.5537 H       1  UNL1        0.0813
     32 H           1.5692    1.1170    1.3422 H       1  UNL1        0.1660
     33 H           2.4605   -1.2793   -2.0647 H       1  UNL1        0.0659
     34 H          -0.7096   -1.7770   -2.3567 H       1  UNL1        0.1660
     35 H          -3.1147   -2.1373   -2.5544 H       1  UNL1        0.0624
     36 H          -5.5608   -2.3888   -2.5975 H       1  UNL1        0.0618
     37 H          -6.9812   -1.2824   -0.8994 H       1  UNL1        0.0618
     38 H          -5.9645    0.1012    0.8781 H       1  UNL1        0.0624
     39 H           3.6831    1.5955    1.7389 H       1  UNL1        0.0837
     40 H           7.7325    1.3605    0.9139 H       1  UNL1        0.0852
@<TRIPOS>BOND
     1     1     2   ar
     2     2     3   ar
     3     3     4   ar
     4     4     5   ar
     5     5     6   ar
     6     6     7   ar
     7     7     8   ar
     8     8     9   ar
     9     9    10   ar
    10    10    11   ar
    11    11    12   ar
    12    12    13   ar
    13    13    14   ar
    14    14    15   ar
    15    15    16   ar
    16    16    17   ar
    17    17    18   ar
    18    18    19   ar
    19     9    20    1
    20    20    21   ar
    21    21    22   ar
    22    22    23   ar
    23    23    24   ar
    24    24    25   ar
    25    25    26   ar
    26    26    27   ar
    27    27    28   ar
    28     5     1   ar
    29    13     6   ar
    30    19    14   ar
    31    28    20   ar
    32    19     4   ar
    33    28    24   ar
    34    11     7   ar
    35     1    29    1
    36     2    30    1
    37     3    31    1
    38     8    32    1
    39    10    33    1
    40    12    34    1
    41    15    35    1
    42    16    36    1
    43    17    37    1
    44    18    38    1
    45    21    39    1
    46    23    40    1
