@<TRIPOS>MOLECULE
*****
 47 53 0 0 0
SMALL
GASTEIGER

@<TRIPOS>ATOM
      1 C          -1.2689   -3.6110    0.7738 C.ar    1  UNL1        0.0101
      2 N          -2.5210   -4.1650    0.9297 N.ar    1  UNL1       -0.3659
      3 C          -3.4947   -3.2067    0.7132 C.ar    1  UNL1        0.0100
      4 C          -2.8654   -2.0145    0.4128 C.ar    1  UNL1        0.0078
      5 C          -1.4990   -2.3045    0.4601 C.ar    1  UNL1        0.0097
      6 C          -0.5967   -1.2424    0.1868 C.ar    1  UNL1        0.0171
      7 C           0.8076   -1.2569    0.1666 C.ar    1  UNL1        0.0081
      8 C           1.8437   -2.1827    0.3740 C.ar    1  UNL1       -0.0514
      9 C           3.1843   -1.7700    0.2511 C.ar    1  UNL1       -0.0519
     10 C           3.5442   -0.4503   -0.0756 C.ar    1  UNL1        0.0023
     11 C           2.4915    0.4683   -0.2810 C.ar    1  UNL1       -0.0286
     12 C           1.1576    0.0473   -0.1562 C.ar    1  UNL1        0.0481
     13 N          -0.0090    0.7701   -0.3119 N.ar    1  UNL1       -0.3536
     14 C          -1.1459    0.0064   -0.1075 C.ar    1  UNL1        0.0565
     15 C          -2.5822    0.3180   -0.1591 C.ar    1  UNL1        0.0144
     16 C          -3.4782   -0.7747    0.1218 C.ar    1  UNL1       -0.0062
     17 C          -4.8730   -0.6103    0.1055 C.ar    1  UNL1       -0.0527
     18 C          -5.4202    0.6289   -0.1865 C.ar    1  UNL1       -0.0534
     19 C          -4.6078    1.7295   -0.4679 C.ar    1  UNL1       -0.0172
     20 C          -5.2444    2.9499   -0.7538 C.ar    1  UNL1       -0.0540
     21 C          -4.5153    4.0952   -1.0448 C.ar    1  UNL1       -0.0612
     22 C          -3.1353    4.0283   -1.0522 C.ar    1  UNL1       -0.0611
     23 C          -2.4906    2.8168   -0.7686 C.ar    1  UNL1       -0.0534
     24 C          -3.1844    1.6146   -0.4642 C.ar    1  UNL1       -0.0082
     25 C           4.9608   -0.0046   -0.2079 C.ar    1  UNL1        0.0710
     26 C           6.0650   -0.8400   -0.0234 C.ar    1  UNL1       -0.0357
     27 C           7.3559   -0.3284   -0.1696 C.ar    1  UNL1       -0.0583
     28 C           7.5278    1.0071   -0.4972 C.ar    1  UNL1       -0.0436
     29 C           6.3955    1.7785   -0.6656 C.ar    1  UNL1        0.0283
     30 N           5.1363    1.3066   -0.5296 N.ar    1  UNL1       -0.2550
     31 H          -0.3796   -4.2079    0.9039 H       1  UNL1        0.0813
     32 H          -2.7031   -5.1312    1.1676 H       1  UNL1        0.1648
     33 H          -4.5371   -3.4797    0.7972 H       1  UNL1        0.0813
     34 H           1.6285   -3.2142    0.6283 H       1  UNL1        0.0624
     35 H           3.9396   -2.5312    0.4232 H       1  UNL1        0.0624
     36 H           2.7091    1.5030   -0.5360 H       1  UNL1        0.0645
     37 H           0.0107    1.7442   -0.5485 H       1  UNL1        0.1659
     38 H          -5.5409   -1.4390    0.3183 H       1  UNL1        0.0624
     39 H          -6.5043    0.7243   -0.1912 H       1  UNL1        0.0624
     40 H          -6.3309    3.0186   -0.7519 H       1  UNL1        0.0624
     41 H          -5.0240    5.0295   -1.2633 H       1  UNL1        0.0618
     42 H          -2.5482    4.9149   -1.2780 H       1  UNL1        0.0618
     43 H          -1.4152    2.8595   -0.7978 H       1  UNL1        0.0624
     44 H           5.9552   -1.8865    0.2328 H       1  UNL1        0.0639
     45 H           8.2180   -0.9739   -0.0273 H       1  UNL1        0.0619
     46 H           8.5160    1.4353   -0.6180 H       1  UNL1        0.0633
     47 H           6.4678    2.8312   -0.9227 H       1  UNL1        0.0830
@<TRIPOS>BOND
     1     1     2   ar
     2     2     3   ar
     3     3     4   ar
     4     4     5   ar
     5     5     6   ar
     6     6     7   ar
     7     7     8   ar
     8     8     9   ar
     9     9    10   ar
    10    10    11   ar
    11    11    12   ar
    12    12    13   ar
    13    13    14   ar
    14    14    15   ar
    15    15    16   ar
    16    16    17   ar
    17    17    18   ar
    18    18    19   ar
    19    19    20   ar
    20    20    21   ar
    21    21    22   ar
    22    22    23   ar
    23    23    24   ar
    24    10    25    1
    25    25    26   ar
    26    26    27   ar
    27    27    28   ar
    28    28    29   ar
    29    29    30   ar
    30     5     1   ar
    31    14     6   ar
    32    24    15   ar
    33    30    25   ar
    34    16     4   ar
    35    24    19   ar
    36    12     7   ar
    37     1    31    1
    38     2    32    1
    39     3    33    1
    40     8    34    1
    41     9    35    1
    42    11    36    1
    43    13    37    1
    44    17    38    1
    45    18    39    1
    46    20    40    1
    47    21    41    1
    48    22    42    1
    49    23    43    1
    50    26    44    1
    51    27    45    1
    52    28    46    1
    53    29    47    1
