@<TRIPOS>MOLECULE
*****
 50 57 0 0 0
SMALL
GASTEIGER

@<TRIPOS>ATOM
      1 C          -0.4486   -4.2121    0.7184 C.ar    1  UNL1        0.0101
      2 N          -1.7705   -4.5784    0.7905 N.ar    1  UNL1       -0.3659
      3 C          -2.5818   -3.4697    0.5922 C.ar    1  UNL1        0.0100
      4 C          -1.7923   -2.3689    0.3113 C.ar    1  UNL1        0.0085
      5 C          -0.4907   -2.8757    0.4656 C.ar    1  UNL1        0.0108
      6 C           0.5787   -1.9796    0.3667 C.ar    1  UNL1        0.0305
      7 C           1.9517   -2.1795    0.4439 C.ar    1  UNL1       -0.0074
      8 C           2.4761   -0.9100    0.2872 C.ar    1  UNL1        0.1370
      9 O           1.4635    0.0048    0.1561 O.2     1  UNL1       -0.4541
     10 C           0.2525   -0.6534    0.2105 C.ar    1  UNL1        0.1446
     11 C          -1.0794   -0.0896    0.1116 C.ar    1  UNL1        0.0339
     12 C          -1.3142    1.3331    0.0743 C.ar    1  UNL1       -0.0060
     13 C          -0.2894    2.3083    0.2531 C.ar    1  UNL1       -0.0533
     14 C          -0.5144    3.6836    0.2248 C.ar    1  UNL1       -0.0611
     15 C          -1.7925    4.1478    0.0270 C.ar    1  UNL1       -0.0611
     16 C          -2.8283    3.2295   -0.1327 C.ar    1  UNL1       -0.0534
     17 C          -2.6409    1.8161   -0.1125 C.ar    1  UNL1       -0.0095
     18 C          -3.7367    0.8992   -0.2932 C.ar    1  UNL1       -0.0096
     19 C          -5.0710    1.3417   -0.5324 C.ar    1  UNL1       -0.0534
     20 C          -6.1364    0.4774   -0.7785 C.ar    1  UNL1       -0.0611
     21 C          -5.9010   -0.8765   -0.8206 C.ar    1  UNL1       -0.0611
     22 C          -4.6127   -1.3470   -0.5738 C.ar    1  UNL1       -0.0534
     23 C          -3.5145   -0.5040   -0.2527 C.ar    1  UNL1       -0.0088
     24 C          -2.1950   -1.0068    0.0469 C.ar    1  UNL1        0.0031
     25 C           3.8234   -0.3876    0.2798 C.ar    1  UNL1        0.0280
     26 C           4.9156   -0.9919    0.9577 C.ar    1  UNL1       -0.0504
     27 C           6.2623   -0.4760    0.9551 C.ar    1  UNL1       -0.0604
     28 C           6.6654    0.6931    0.2707 C.ar    1  UNL1       -0.0510
     29 C           5.5854    1.2585   -0.3925 C.ar    1  UNL1        0.0205
     30 C           5.6017    2.3847   -1.1699 C.ar    1  UNL1        0.0994
     31 O           4.3487    2.6099   -1.6692 O.2     1  UNL1       -0.4698
     32 C           3.5324    1.6151   -1.2014 C.ar    1  UNL1        0.1001
     33 C           4.2452    0.7618   -0.3966 C.ar    1  UNL1        0.0305
     34 H           0.3514   -4.9201    0.8830 H       1  UNL1        0.0813
     35 H          -2.1076   -5.5077    1.0070 H       1  UNL1        0.1648
     36 H          -3.6457   -3.6020    0.7155 H       1  UNL1        0.0813
     37 H           2.5028   -3.0976    0.5797 H       1  UNL1        0.0662
     38 H           0.7361    2.0188    0.4523 H       1  UNL1        0.0624
     39 H           0.3118    4.3746    0.3666 H       1  UNL1        0.0618
     40 H          -1.9954    5.2145    0.0028 H       1  UNL1        0.0618
     41 H          -3.8119    3.6657   -0.2765 H       1  UNL1        0.0624
     42 H          -5.3198    2.3983   -0.5491 H       1  UNL1        0.0624
     43 H          -7.1310    0.8723   -0.9647 H       1  UNL1        0.0618
     44 H          -6.7023   -1.5704   -1.0569 H       1  UNL1        0.0618
     45 H          -4.4727   -2.4135   -0.7001 H       1  UNL1        0.0624
     46 H           4.7357   -1.9011    1.5331 H       1  UNL1        0.0625
     47 H           7.0160   -1.0263    1.5204 H       1  UNL1        0.0618
     48 H           7.6782    1.0696    0.2730 H       1  UNL1        0.0625
     49 H           6.3566    3.0982   -1.4675 H       1  UNL1        0.1035
     50 H           2.5056    1.6685   -1.5359 H       1  UNL1        0.1036
@<TRIPOS>BOND
     1     1     2   ar
     2     2     3   ar
     3     3     4   ar
     4     4     5   ar
     5     5     6   ar
     6     6     7   ar
     7     7     8   ar
     8     8     9   ar
     9     9    10   ar
    10    10    11   ar
    11    11    12   ar
    12    12    13   ar
    13    13    14   ar
    14    14    15   ar
    15    15    16   ar
    16    16    17   ar
    17    17    18   ar
    18    18    19   ar
    19    19    20   ar
    20    20    21   ar
    21    21    22   ar
    22    22    23   ar
    23    23    24   ar
    24     8    25    1
    25    25    26   ar
    26    26    27   ar
    27    27    28   ar
    28    28    29   ar
    29    29    30   ar
    30    30    31   ar
    31    31    32   ar
    32    32    33   ar
    33     5     1   ar
    34    10     6   ar
    35    24    11   ar
    36    33    25   ar
    37    24     4   ar
    38    33    29   ar
    39    17    12   ar
    40    23    18   ar
    41     1    34    1
    42     2    35    1
    43     3    36    1
    44     7    37    1
    45    13    38    1
    46    14    39    1
    47    15    40    1
    48    16    41    1
    49    19    42    1
    50    20    43    1
    51    21    44    1
    52    22    45    1
    53    26    46    1
    54    27    47    1
    55    28    48    1
    56    30    49    1
    57    32    50    1
