@<TRIPOS>MOLECULE
*****
 41 47 0 0 0
SMALL
GASTEIGER

@<TRIPOS>ATOM
      1 C          -0.2293   -3.8385   -1.3347 C.ar    1  UNL1        0.0101
      2 N          -1.5160   -4.3004   -1.5326 N.ar    1  UNL1       -0.3659
      3 C          -2.4396   -3.3132   -1.2185 C.ar    1  UNL1        0.0100
      4 C          -1.7457   -2.1946   -0.8110 C.ar    1  UNL1        0.0079
      5 C          -0.3900   -2.5601   -0.8972 C.ar    1  UNL1        0.0108
      6 C           0.5713   -1.5899   -0.5331 C.ar    1  UNL1        0.0305
      7 C           1.9597   -1.6132   -0.5000 C.ar    1  UNL1       -0.0074
      8 C           2.3139   -0.3452   -0.0508 C.ar    1  UNL1        0.1384
      9 O           1.1833    0.4047    0.1751 O.2     1  UNL1       -0.4541
     10 C           0.0916   -0.3667   -0.1242 C.ar    1  UNL1        0.1441
     11 C          -1.2835   -0.0036   -0.0393 C.ar    1  UNL1        0.0277
     12 C          -1.6592    1.2805    0.3938 C.ar    1  UNL1       -0.0245
     13 C          -2.9949    1.6510    0.4823 C.ar    1  UNL1        0.0717
     14 N          -3.3024    2.8909    0.9022 N.ar    1  UNL1       -0.2550
     15 C          -4.6067    3.2330    0.9818 C.ar    1  UNL1        0.0283
     16 C          -5.6478    2.3852    0.6577 C.ar    1  UNL1       -0.0430
     17 C          -5.3328    1.1037    0.2237 C.ar    1  UNL1       -0.0511
     18 C          -3.9922    0.7090    0.1269 C.ar    1  UNL1        0.0010
     19 C          -3.6438   -0.5815   -0.3092 C.ar    1  UNL1       -0.0441
     20 C          -2.2873   -0.9495   -0.3963 C.ar    1  UNL1       -0.0045
     21 C           3.5971    0.2972    0.2095 C.ar    1  UNL1        0.0454
     22 C           4.8246   -0.3848    0.0100 C.ar    1  UNL1       -0.0489
     23 C           6.0977    0.1866    0.2453 C.ar    1  UNL1       -0.0589
     24 C           6.2695    1.4991    0.7045 C.ar    1  UNL1       -0.0335
     25 C           5.0875    2.2438    0.9270 C.ar    1  UNL1        0.1006
     26 N           5.0504    3.5119    1.3646 N.ar    1  UNL1       -0.1908
     27 S           3.4480    3.9264    1.4605 S.2     1  UNL1        0.1165
     28 N           2.7353    2.5236    0.9541 N.ar    1  UNL1       -0.1901
     29 C           3.7147    1.6429    0.6785 C.ar    1  UNL1        0.1105
     30 H           0.6326   -4.4623   -1.5249 H       1  UNL1        0.0813
     31 H          -1.7542   -5.2277   -1.8604 H       1  UNL1        0.1648
     32 H          -3.4968   -3.5162   -1.3201 H       1  UNL1        0.0813
     33 H           2.6259   -2.4214   -0.7598 H       1  UNL1        0.0662
     34 H          -0.8963    2.0073    0.6678 H       1  UNL1        0.0646
     35 H          -4.7958    4.2457    1.3265 H       1  UNL1        0.0830
     36 H          -6.6773    2.7133    0.7407 H       1  UNL1        0.0633
     37 H          -6.1345    0.4179   -0.0373 H       1  UNL1        0.0625
     38 H          -4.4156   -1.2962   -0.5793 H       1  UNL1        0.0630
     39 H           4.8058   -1.4151   -0.3470 H       1  UNL1        0.0625
     40 H           6.9841   -0.4214    0.0613 H       1  UNL1        0.0618
     41 H           7.2487    1.9275    0.8817 H       1  UNL1        0.0640
@<TRIPOS>BOND
     1     1     2   ar
     2     2     3   ar
     3     3     4   ar
     4     4     5   ar
     5     5     6   ar
     6     6     7   ar
     7     7     8   ar
     8     8     9   ar
     9     9    10   ar
    10    10    11   ar
    11    11    12   ar
    12    12    13   ar
    13    13    14   ar
    14    14    15   ar
    15    15    16   ar
    16    16    17   ar
    17    17    18   ar
    18    18    19   ar
    19    19    20   ar
    20     8    21    1
    21    21    22   ar
    22    22    23   ar
    23    23    24   ar
    24    24    25   ar
    25    25    26   ar
    26    26    27   ar
    27    27    28   ar
    28    28    29   ar
    29     5     1   ar
    30    10     6   ar
    31    20    11   ar
    32    29    21   ar
    33    20     4   ar
    34    29    25   ar
    35    18    13   ar
    36     1    30    1
    37     2    31    1
    38     3    32    1
    39     7    33    1
    40    12    34    1
    41    15    35    1
    42    16    36    1
    43    17    37    1
    44    19    38    1
    45    22    39    1
    46    23    40    1
    47    24    41    1
