@<TRIPOS>MOLECULE
*****
 41 48 0 0 0
SMALL
GASTEIGER

@<TRIPOS>ATOM
      1 C          -0.4689   -3.1045    1.7650 C.ar    1  UNL1        0.0101
      2 N          -1.8150   -3.3772    1.7771 N.ar    1  UNL1       -0.3659
      3 C          -2.5068   -2.4005    1.0730 C.ar    1  UNL1        0.0101
      4 C          -1.6229   -1.4454    0.6182 C.ar    1  UNL1        0.0100
      5 C          -0.3733   -1.9478    1.0553 C.ar    1  UNL1        0.0109
      6 C           0.7910   -1.2437    0.7143 C.ar    1  UNL1        0.0320
      7 C           2.1370   -1.4675    0.9737 C.ar    1  UNL1       -0.0073
      8 C           2.7745   -0.4066    0.3484 C.ar    1  UNL1        0.1399
      9 O           1.8598    0.4019   -0.2815 O.2     1  UNL1       -0.4525
     10 C           0.6068   -0.1183   -0.0458 C.ar    1  UNL1        0.1621
     11 C          -0.6489    0.3782   -0.4908 C.ar    1  UNL1        0.1150
     12 N          -0.5333    1.4900   -1.2540 N.ar    1  UNL1       -0.2506
     13 C          -1.6639    2.0426   -1.7270 C.ar    1  UNL1        0.0362
     14 C          -2.9521    1.5869   -1.4831 C.ar    1  UNL1        0.0030
     15 C          -4.0234    2.3207   -2.0618 C.ar    1  UNL1       -0.0504
     16 C          -5.3714    2.0045   -1.8868 C.ar    1  UNL1       -0.0329
     17 C          -5.6242    0.8949   -1.0636 C.ar    1  UNL1        0.1005
     18 N          -6.8524    0.4507   -0.7570 N.ar    1  UNL1       -0.1908
     19 S          -6.6447   -0.8407    0.2516 S.2     1  UNL1        0.1165
     20 N          -4.9973   -0.8945    0.3314 N.ar    1  UNL1       -0.1901
     21 C          -4.4998    0.0893   -0.4347 C.ar    1  UNL1        0.1082
     22 C          -3.0987    0.4164   -0.6601 C.ar    1  UNL1        0.0216
     23 C          -1.8912   -0.2533   -0.1578 C.ar    1  UNL1        0.0230
     24 C           4.1625   -0.0382    0.1917 C.ar    1  UNL1        0.0635
     25 C           5.1895   -0.9674   -0.0064 C.ar    1  UNL1        0.0404
     26 N           6.5325   -0.7194   -0.1610 N.ar    1  UNL1       -0.2603
     27 C           7.0079    0.5595   -0.1339 C.ar    1  UNL1        0.0557
     28 C           6.0889    1.6083    0.0712 C.ar    1  UNL1        0.1186
     29 N           6.3793    2.9179    0.1389 N.ar    1  UNL1       -0.1892
     30 S           4.9398    3.7002    0.4058 S.2     1  UNL1        0.1165
     31 N           3.8973    2.4161    0.4661 N.ar    1  UNL1       -0.1900
     32 C           4.6195    1.3023    0.2453 C.ar    1  UNL1        0.1134
     33 H           0.2504   -3.7549    2.2426 H       1  UNL1        0.0813
     34 H          -2.2460   -4.1816    2.2147 H       1  UNL1        0.1648
     35 H          -3.5709   -2.5289    0.9795 H       1  UNL1        0.0813
     36 H           2.6005   -2.2665    1.5330 H       1  UNL1        0.0662
     37 H          -1.4823    2.9251   -2.3387 H       1  UNL1        0.0836
     38 H          -3.8000    3.1924   -2.6816 H       1  UNL1        0.0625
     39 H          -6.1704    2.5810   -2.3364 H       1  UNL1        0.0640
     40 H           4.9492   -2.0297   -0.0632 H       1  UNL1        0.0837
     41 H           8.0716    0.7076   -0.2647 H       1  UNL1        0.0852
@<TRIPOS>BOND
     1     1     2   ar
     2     2     3   ar
     3     3     4   ar
     4     4     5   ar
     5     5     6   ar
     6     6     7   ar
     7     7     8   ar
     8     8     9   ar
     9     9    10   ar
    10    10    11   ar
    11    11    12   ar
    12    12    13   ar
    13    13    14   ar
    14    14    15   ar
    15    15    16   ar
    16    16    17   ar
    17    17    18   ar
    18    18    19   ar
    19    19    20   ar
    20    20    21   ar
    21    21    22   ar
    22    22    23   ar
    23     8    24    1
    24    24    25   ar
    25    25    26   ar
    26    26    27   ar
    27    27    28   ar
    28    28    29   ar
    29    29    30   ar
    30    30    31   ar
    31    31    32   ar
    32     5     1   ar
    33    10     6   ar
    34    23    11   ar
    35    32    24   ar
    36    23     4   ar
    37    32    28   ar
    38    22    14   ar
    39    21    17   ar
    40     1    33    1
    41     2    34    1
    42     3    35    1
    43     7    36    1
    44    13    37    1
    45    15    38    1
    46    16    39    1
    47    25    40    1
    48    27    41    1
