@<TRIPOS>MOLECULE
*****
 44 50 0 0 0
SMALL
GASTEIGER

@<TRIPOS>ATOM
      1 SI         -1.6312    0.4650   -0.0456 Si      1  UNL1        0.0000
      2 C          -3.0906   -0.7312    0.0380 C.2     1  UNL1        0.0000
      3 C          -2.6622   -1.9992    0.1897 C.2     1  UNL1        0.0000
      4 C          -1.2162   -2.1703    0.2265 C.2     1  UNL1        0.0000
      5 C          -0.4780   -1.0411    0.1302 C.2     1  UNL1        0.0000
      6 C           0.9687   -0.8551    0.1385 C.ar    1  UNL1        0.0000
      7 N           1.4841    0.3458   -0.2797 N.ar    1  UNL1        0.0000
      8 C           2.8344    0.5795   -0.3107 C.ar    1  UNL1        0.0000
      9 C           3.8555   -0.2963    0.0545 C.ar    1  UNL1        0.0000
     10 C           5.2608    0.0509    0.0017 C.ar    1  UNL1        0.0000
     11 S           6.3974   -0.9012   -0.9208 S.2     1  UNL1        0.0000
     12 C           7.7444    0.1231   -0.5415 C.ar    1  UNL1        0.0000
     13 C           7.2870    1.1235    0.2318 C.ar    1  UNL1        0.0000
     14 O           8.0167    2.1530    0.7391 O.2     1  UNL1        0.0000
     15 C           7.0210    2.8279    1.4223 C.ar    1  UNL1        0.0000
     16 C           5.7549    2.2343    1.3277 C.ar    1  UNL1        0.0000
     17 C           5.9463    1.0938    0.5265 C.ar    1  UNL1        0.0000
     18 C           3.3866   -1.5484    0.5208 C.ar    1  UNL1        0.0000
     19 N           4.1338   -2.5705    0.9770 N.ar    1  UNL1        0.0000
     20 S           3.0965   -3.7886    1.3910 S.2     1  UNL1        0.0000
     21 N           1.6428   -3.0849    1.0378 N.ar    1  UNL1        0.0000
     22 C           1.8981   -1.8501    0.5646 C.ar    1  UNL1        0.0000
     23 C          -4.4658   -0.2889    0.0209 C.ar    1  UNL1        0.0000
     24 C          -5.3506   -0.3576    1.1266 C.ar    1  UNL1        0.0000
     25 C          -6.7221    0.0861    1.0954 C.ar    1  UNL1        0.0000
     26 C          -7.3573    0.6359   -0.0427 C.ar    1  UNL1        0.0000
     27 C          -6.4747    0.6771   -1.1132 C.ar    1  UNL1        0.0000
     28 C          -6.7373    1.1280   -2.3785 C.ar    1  UNL1        0.0000
     29 O          -5.6176    0.9876   -3.1525 O.2     1  UNL1        0.0000
     30 C          -4.6372    0.4416   -2.3673 C.ar    1  UNL1        0.0000
     31 C          -5.1141    0.2452   -1.0960 C.ar    1  UNL1        0.0000
     32 H          -1.5869    1.3622    1.1396 H       1  UNL1        0.0000
     33 H          -1.5456    1.1148   -1.3803 H       1  UNL1        0.0000
     34 H          -3.3192   -2.8560    0.2843 H       1  UNL1        0.0000
     35 H          -0.8102   -3.1700    0.3246 H       1  UNL1        0.0000
     36 H           3.0847    1.5758   -0.6775 H       1  UNL1        0.0000
     37 H           8.7503   -0.0531   -0.8933 H       1  UNL1        0.0000
     38 H           7.3677    3.7174    1.9328 H       1  UNL1        0.0000
     39 H           4.8484    2.5985    1.7898 H       1  UNL1        0.0000
     40 H          -4.9766   -0.7648    2.0673 H       1  UNL1        0.0000
     41 H          -7.3049   -0.0115    2.0125 H       1  UNL1        0.0000
     42 H          -8.3873    0.9620   -0.0543 H       1  UNL1        0.0000
     43 H          -7.5994    1.5456   -2.8784 H       1  UNL1        0.0000
     44 H          -3.6949    0.2643   -2.8658 H       1  UNL1        0.0000
@<TRIPOS>BOND
     1     1     2    1
     2     2     3    2
     3     3     4    1
     4     4     5    2
     5     5     6    1
     6     6     7   ar
     7     7     8   ar
     8     8     9   ar
     9     9    10    1
    10    10    11   ar
    11    11    12   ar
    12    12    13   ar
    13    13    14   ar
    14    14    15   ar
    15    15    16   ar
    16    16    17   ar
    17     9    18   ar
    18    18    19   ar
    19    19    20   ar
    20    20    21   ar
    21    21    22   ar
    22     2    23    1
    23    23    24   ar
    24    24    25   ar
    25    25    26   ar
    26    26    27   ar
    27    27    28   ar
    28    28    29   ar
    29    29    30   ar
    30    30    31   ar
    31     5     1    1
    32    22     6   ar
    33    31    23   ar
    34    17    10   ar
    35    22    18   ar
    36    31    27   ar
    37    17    13   ar
    38     1    32    1
    39     1    33    1
    40     3    34    1
    41     4    35    1
    42     8    36    1
    43    12    37    1
    44    15    38    1
    45    16    39    1
    46    24    40    1
    47    25    41    1
    48    26    42    1
    49    28    43    1
    50    30    44    1
