@<TRIPOS>MOLECULE
*****
 42 48 0 0 0
SMALL
GASTEIGER

@<TRIPOS>ATOM
      1 C          -1.3306    2.2165   -3.0201 C.ar    1  UNL1        0.0101
      2 N          -2.7015    2.3042   -3.1531 N.ar    1  UNL1       -0.3659
      3 C          -3.3288    1.5474   -2.1764 C.ar    1  UNL1        0.0101
      4 C          -2.3617    0.9555   -1.3925 C.ar    1  UNL1        0.0114
      5 C          -1.1463    1.3965   -1.9500 C.ar    1  UNL1        0.0109
      6 C           0.0492    0.9487   -1.3506 C.ar    1  UNL1        0.0320
      7 C           1.3874    1.1840   -1.6385 C.ar    1  UNL1       -0.0074
      8 C           2.0759    0.4534   -0.6778 C.ar    1  UNL1        0.1370
      9 O           1.1882   -0.1917    0.1499 O.2     1  UNL1       -0.4526
     10 C          -0.0846    0.1142   -0.2659 C.ar    1  UNL1        0.1622
     11 C          -1.3150   -0.3247    0.2886 C.ar    1  UNL1        0.1164
     12 N          -1.2101   -1.1447    1.3576 N.ar    1  UNL1       -0.2505
     13 C          -2.3691   -1.5711    1.8969 C.ar    1  UNL1        0.0376
     14 C          -3.6409   -1.2282    1.4329 C.ar    1  UNL1        0.0191
     15 C          -4.8040   -1.7149    2.0506 C.ar    1  UNL1       -0.0497
     16 C          -6.0491   -1.3516    1.5604 C.ar    1  UNL1       -0.0430
     17 C          -6.0862   -0.5125    0.4675 C.ar    1  UNL1        0.0283
     18 N          -4.9839   -0.0289   -0.1469 N.ar    1  UNL1       -0.2542
     19 C          -3.7571   -0.3736    0.3187 C.ar    1  UNL1        0.0823
     20 C          -2.5562    0.0924   -0.2715 C.ar    1  UNL1        0.0391
     21 C           3.4873    0.2591   -0.4055 C.ar    1  UNL1        0.0280
     22 C           4.5276    0.8578   -1.1707 C.ar    1  UNL1       -0.0504
     23 C           5.9369    0.6815   -0.9218 C.ar    1  UNL1       -0.0604
     24 C           6.4656   -0.1121    0.1188 C.ar    1  UNL1       -0.0510
     25 C           5.4383   -0.6868    0.8530 C.ar    1  UNL1        0.0205
     26 C           5.5788   -1.5150    1.9332 C.ar    1  UNL1        0.0994
     27 O           4.3434   -1.8783    2.3893 O.2     1  UNL1       -0.4698
     28 C           3.4124   -1.2727    1.5881 C.ar    1  UNL1        0.1001
     29 C           4.0354   -0.5229    0.6203 C.ar    1  UNL1        0.0305
     30 H          -0.6611    2.7378   -3.6896 H       1  UNL1        0.0813
     31 H          -3.1849    2.8425   -3.8605 H       1  UNL1        0.1648
     32 H          -4.4097    1.5080   -2.1401 H       1  UNL1        0.0813
     33 H           1.8155    1.7904   -2.4220 H       1  UNL1        0.0662
     34 H          -2.2430   -2.2284    2.7544 H       1  UNL1        0.0836
     35 H          -4.7418   -2.3758    2.9118 H       1  UNL1        0.0625
     36 H          -6.9631   -1.7125    2.0177 H       1  UNL1        0.0633
     37 H          -7.0312   -0.1924    0.0377 H       1  UNL1        0.0830
     38 H           4.2584    1.4998   -2.0102 H       1  UNL1        0.0625
     39 H           6.6362    1.1962   -1.5824 H       1  UNL1        0.0618
     40 H           7.5235   -0.2388    0.2982 H       1  UNL1        0.0625
     41 H           6.4161   -1.9253    2.4791 H       1  UNL1        0.1035
     42 H           2.3837   -1.4831    1.8478 H       1  UNL1        0.1036
@<TRIPOS>BOND
     1     1     2   ar
     2     2     3   ar
     3     3     4   ar
     4     4     5   ar
     5     5     6   ar
     6     6     7   ar
     7     7     8   ar
     8     8     9   ar
     9     9    10   ar
    10    10    11   ar
    11    11    12   ar
    12    12    13   ar
    13    13    14   ar
    14    14    15   ar
    15    15    16   ar
    16    16    17   ar
    17    17    18   ar
    18    18    19   ar
    19    19    20   ar
    20     8    21    1
    21    21    22   ar
    22    22    23   ar
    23    23    24   ar
    24    24    25   ar
    25    25    26   ar
    26    26    27   ar
    27    27    28   ar
    28    28    29   ar
    29     5     1   ar
    30    10     6   ar
    31    20    11   ar
    32    29    21   ar
    33    20     4   ar
    34    29    25   ar
    35    19    14   ar
    36     1    30    1
    37     2    31    1
    38     3    32    1
    39     7    33    1
    40    13    34    1
    41    15    35    1
    42    16    36    1
    43    17    37    1
    44    22    38    1
    45    23    39    1
    46    24    40    1
    47    26    41    1
    48    28    42    1
