@<TRIPOS>MOLECULE
*****
 46 53 0 0 0
SMALL
GASTEIGER

@<TRIPOS>ATOM
      1 C           3.2068    3.0916    0.4364 C.ar    1  UNL1        0.0100
      2 N           2.0305    3.7549    0.6722 N.ar    1  UNL1       -0.3659
      3 C           0.9771    2.8855    0.5435 C.ar    1  UNL1        0.0101
      4 C           1.4713    1.6375    0.2272 C.ar    1  UNL1        0.0098
      5 C           2.8972    1.7779    0.1559 C.ar    1  UNL1        0.0078
      6 C           3.8343    0.7628   -0.1210 C.ar    1  UNL1       -0.0074
      7 C           5.2762    1.0111   -0.1572 C.ar    1  UNL1       -0.0527
      8 C           6.2420    0.0173   -0.3550 C.ar    1  UNL1       -0.0504
      9 C           5.6172   -1.2087   -0.4491 C.ar    1  UNL1        0.0205
     10 C           6.2777   -2.4044   -0.5306 C.ar    1  UNL1        0.0994
     11 O           5.3723   -3.4184   -0.4952 O.2     1  UNL1       -0.4698
     12 C           4.1306   -2.8531   -0.4025 C.ar    1  UNL1        0.1000
     13 C           4.2050   -1.4796   -0.4325 C.ar    1  UNL1        0.0282
     14 C           3.1477   -0.5082   -0.3289 C.ar    1  UNL1        0.0034
     15 C           1.6341   -0.6262   -0.3726 C.ar    1  UNL1        0.0214
     16 C           0.9055   -1.7865   -0.8307 C.ar    1  UNL1        0.1089
     17 N           1.4286   -2.8825   -1.4051 N.ar    1  UNL1       -0.1901
     18 S           0.2096   -3.9340   -1.7487 S.2     1  UNL1        0.1165
     19 N          -1.0797   -3.0522   -1.2277 N.ar    1  UNL1       -0.1901
     20 C          -0.6011   -1.8763   -0.7781 C.ar    1  UNL1        0.1097
     21 C          -1.4002   -0.7985   -0.3010 C.ar    1  UNL1        0.0298
     22 C          -2.8116   -0.9009   -0.2280 C.ar    1  UNL1       -0.0398
     23 C          -3.5871    0.1729    0.2042 C.ar    1  UNL1        0.0191
     24 C          -2.8609    1.3004    0.5501 C.ar    1  UNL1        0.0375
     25 N          -1.5060    1.4192    0.4791 N.ar    1  UNL1       -0.2536
     26 C          -0.7381    0.3862    0.0612 C.ar    1  UNL1        0.0815
     27 C           0.7116    0.4567   -0.0182 C.ar    1  UNL1        0.0200
     28 C          -5.0543    0.0968    0.2901 C.ar    1  UNL1        0.0724
     29 C          -5.8892    1.2040    0.1297 C.ar    1  UNL1       -0.0356
     30 C          -7.2705    1.0402    0.2282 C.ar    1  UNL1       -0.0583
     31 C          -7.7907   -0.2210    0.4815 C.ar    1  UNL1       -0.0436
     32 C          -6.9036   -1.2715    0.6219 C.ar    1  UNL1        0.0283
     33 N          -5.5618   -1.1396    0.5299 N.ar    1  UNL1       -0.2549
     34 H           4.1436    3.6269    0.4990 H       1  UNL1        0.0813
     35 H           1.9476    4.7363    0.9044 H       1  UNL1        0.1648
     36 H          -0.0275    3.2561    0.6905 H       1  UNL1        0.0813
     37 H           5.6399    2.0271   -0.0111 H       1  UNL1        0.0624
     38 H           7.3059    0.2018   -0.3637 H       1  UNL1        0.0625
     39 H           7.3150   -2.7037   -0.5765 H       1  UNL1        0.1035
     40 H           3.3418   -3.5791   -0.2948 H       1  UNL1        0.1036
     41 H          -3.3008   -1.8310   -0.5180 H       1  UNL1        0.0632
     42 H          -3.3484    2.1948    0.9299 H       1  UNL1        0.0836
     43 H          -5.4889    2.1885   -0.0886 H       1  UNL1        0.0639
     44 H          -7.9334    1.8917    0.1024 H       1  UNL1        0.0619
     45 H          -8.8595   -0.3828    0.5631 H       1  UNL1        0.0633
     46 H          -7.2557   -2.2804    0.8177 H       1  UNL1        0.0830
@<TRIPOS>BOND
     1     1     2   ar
     2     2     3   ar
     3     3     4   ar
     4     4     5   ar
     5     5     6   ar
     6     6     7   ar
     7     7     8   ar
     8     8     9   ar
     9     9    10   ar
    10    10    11   ar
    11    11    12   ar
    12    12    13   ar
    13    13    14   ar
    14    14    15   ar
    15    15    16   ar
    16    16    17   ar
    17    17    18   ar
    18    18    19   ar
    19    19    20   ar
    20    20    21   ar
    21    21    22   ar
    22    22    23   ar
    23    23    24   ar
    24    24    25   ar
    25    25    26   ar
    26    26    27   ar
    27    23    28    1
    28    28    29   ar
    29    29    30   ar
    30    30    31   ar
    31    31    32   ar
    32    32    33   ar
    33     5     1   ar
    34    14     6   ar
    35    27    15   ar
    36    33    28   ar
    37    27     4   ar
    38    13     9   ar
    39    20    16   ar
    40    26    21   ar
    41     1    34    1
    42     2    35    1
    43     3    36    1
    44     7    37    1
    45     8    38    1
    46    10    39    1
    47    12    40    1
    48    22    41    1
    49    24    42    1
    50    29    43    1
    51    30    44    1
    52    31    45    1
    53    32    46    1
