@<TRIPOS>MOLECULE
*****
 45 51 0 0 0
SMALL
GASTEIGER

@<TRIPOS>ATOM
      1 C          -3.5058    0.6721    2.8462 C.ar    1  UNL1        0.0100
      2 N          -2.4225    0.9436    3.6354 N.ar    1  UNL1       -0.3659
      3 C          -1.2663    0.7822    2.9063 C.ar    1  UNL1        0.0100
      4 C          -1.5989    0.4001    1.6239 C.ar    1  UNL1        0.0083
      5 C          -3.0341    0.3328    1.5969 C.ar    1  UNL1        0.0077
      6 C          -3.8425   -0.0158    0.4998 C.ar    1  UNL1       -0.0075
      7 C          -5.3031   -0.0523    0.5836 C.ar    1  UNL1       -0.0527
      8 C          -6.1450   -0.3926   -0.4796 C.ar    1  UNL1       -0.0504
      9 C          -5.3813   -0.6801   -1.5906 C.ar    1  UNL1        0.0205
     10 C          -5.9041   -1.0490   -2.7998 C.ar    1  UNL1        0.0994
     11 O          -4.8904   -1.2595   -3.6790 O.2     1  UNL1       -0.4698
     12 C          -3.7176   -1.0206   -3.0168 C.ar    1  UNL1        0.1000
     13 C          -3.9457   -0.6544   -1.7085 C.ar    1  UNL1        0.0281
     14 C          -3.0086   -0.3145   -0.6606 C.ar    1  UNL1        0.0012
     15 C          -1.5005   -0.2458   -0.6389 C.ar    1  UNL1       -0.0082
     16 C          -0.7368   -0.5419   -1.7801 C.ar    1  UNL1       -0.0528
     17 C           0.6598   -0.4986   -1.8308 C.ar    1  UNL1       -0.0533
     18 C           1.4134   -0.1482   -0.7199 C.ar    1  UNL1       -0.0137
     19 C           2.8177   -0.1206   -0.8268 C.ar    1  UNL1       -0.0265
     20 C           3.6060    0.2257    0.2648 C.ar    1  UNL1        0.0897
     21 N           3.0092    0.5372    1.4352 N.ar    1  UNL1       -0.2528
     22 C           1.6516    0.5024    1.5102 C.ar    1  UNL1        0.0366
     23 C           0.7573    0.1692    0.4796 C.ar    1  UNL1        0.0086
     24 C          -0.7165    0.1216    0.5268 C.ar    1  UNL1        0.0010
     25 C           5.0975    0.2799    0.2382 C.ar    1  UNL1        0.0891
     26 C           5.8647   -0.0136   -0.8939 C.ar    1  UNL1       -0.0342
     27 C           7.2579    0.0624   -0.8306 C.ar    1  UNL1       -0.0583
     28 C           7.8683    0.4293    0.3586 C.ar    1  UNL1       -0.0436
     29 C           7.0563    0.7063    1.4399 C.ar    1  UNL1        0.0283
     30 N           5.7085    0.6395    1.4020 N.ar    1  UNL1       -0.2534
     31 H          -4.5014    0.7495    3.2594 H       1  UNL1        0.0813
     32 H          -2.4612    1.2214    4.6081 H       1  UNL1        0.1648
     33 H          -0.3420    0.9687    3.4227 H       1  UNL1        0.0813
     34 H          -5.7847    0.1988    1.5273 H       1  UNL1        0.0624
     35 H          -7.2226   -0.4180   -0.4122 H       1  UNL1        0.0625
     36 H          -6.9016   -1.2016   -3.1868 H       1  UNL1        0.1035
     37 H          -2.8586   -1.1665   -3.6487 H       1  UNL1        0.1036
     38 H          -1.2046   -0.8280   -2.7082 H       1  UNL1        0.0624
     39 H           1.1443   -0.7493   -2.7736 H       1  UNL1        0.0624
     40 H           3.2735   -0.3747   -1.7769 H       1  UNL1        0.0645
     41 H           1.3191    0.7726    2.4986 H       1  UNL1        0.0836
     42 H           5.4118   -0.3025   -1.8343 H       1  UNL1        0.0639
     43 H           7.8584   -0.1645   -1.7070 H       1  UNL1        0.0619
     44 H           8.9466    0.4980    0.4419 H       1  UNL1        0.0633
     45 H           7.4747    0.9990    2.3983 H       1  UNL1        0.0830
@<TRIPOS>BOND
     1     1     2   ar
     2     2     3   ar
     3     3     4   ar
     4     4     5   ar
     5     5     6   ar
     6     6     7   ar
     7     7     8   ar
     8     8     9   ar
     9     9    10   ar
    10    10    11   ar
    11    11    12   ar
    12    12    13   ar
    13    13    14   ar
    14    14    15   ar
    15    15    16   ar
    16    16    17   ar
    17    17    18   ar
    18    18    19   ar
    19    19    20   ar
    20    20    21   ar
    21    21    22   ar
    22    22    23   ar
    23    23    24   ar
    24    20    25    1
    25    25    26   ar
    26    26    27   ar
    27    27    28   ar
    28    28    29   ar
    29    29    30   ar
    30     5     1   ar
    31    14     6   ar
    32    24    15   ar
    33    30    25   ar
    34    24     4   ar
    35    13     9   ar
    36    23    18   ar
    37     1    31    1
    38     2    32    1
    39     3    33    1
    40     7    34    1
    41     8    35    1
    42    10    36    1
    43    12    37    1
    44    16    38    1
    45    17    39    1
    46    19    40    1
    47    22    41    1
    48    26    42    1
    49    27    43    1
    50    28    44    1
    51    29    45    1
