@<TRIPOS>MOLECULE
*****
 44 50 0 0 0
SMALL
GASTEIGER

@<TRIPOS>ATOM
      1 C          -3.3087   -2.6104    1.8061 C.ar    1  UNL1        0.0100
      2 N          -2.1611   -3.1083    2.3649 N.ar    1  UNL1       -0.3659
      3 C          -1.0750   -2.3931    1.9127 C.ar    1  UNL1        0.0100
      4 C          -1.5144   -1.4640    0.9928 C.ar    1  UNL1        0.0083
      5 C          -2.9445   -1.5681    0.9841 C.ar    1  UNL1        0.0077
      6 C          -3.8362   -0.7515    0.2619 C.ar    1  UNL1       -0.0081
      7 C          -5.2452   -0.9212    0.2238 C.ar    1  UNL1       -0.0534
      8 C          -6.0251   -0.0821   -0.5573 C.ar    1  UNL1       -0.0611
      9 C          -5.4067    0.9032   -1.3102 C.ar    1  UNL1       -0.0611
     10 C          -4.0130    1.0688   -1.2566 C.ar    1  UNL1       -0.0534
     11 C          -3.1579    0.2854   -0.4412 C.ar    1  UNL1       -0.0089
     12 C          -1.6667    0.4557   -0.3365 C.ar    1  UNL1        0.0002
     13 C          -0.8843    1.5638   -0.7930 C.ar    1  UNL1        0.0083
     14 C          -1.3386    2.7991   -1.2052 C.ar    1  UNL1        0.0100
     15 N          -0.2541    3.5767   -1.5422 N.ar    1  UNL1       -0.3659
     16 C           0.9048    2.8922   -1.2846 C.ar    1  UNL1        0.0100
     17 C           0.5475    1.6620   -0.7818 C.ar    1  UNL1        0.0078
     18 C           1.4484    0.6782   -0.3325 C.ar    1  UNL1       -0.0046
     19 C           2.8612    0.7661   -0.3866 C.ar    1  UNL1       -0.0243
     20 C           3.6273   -0.2991    0.0668 C.ar    1  UNL1        0.1085
     21 N           3.0242   -1.4201    0.5353 N.ar    1  UNL1       -0.2512
     22 C           1.6616   -1.4597    0.5741 C.ar    1  UNL1        0.0367
     23 C           0.7696   -0.4423    0.2027 C.ar    1  UNL1        0.0093
     24 C          -0.7299   -0.5008    0.2873 C.ar    1  UNL1        0.0016
     25 C           5.1132   -0.2721    0.0445 C.ar    1  UNL1        0.1812
     26 N           5.7749   -1.3464    0.4968 N.ar    1  UNL1       -0.2145
     27 C           7.0990   -1.2551    0.4484 C.ar    1  UNL1        0.1201
     28 N           7.7962   -0.2144    0.0017 N.ar    1  UNL1       -0.2241
     29 C           7.0415    0.7946   -0.4216 C.ar    1  UNL1        0.1201
     30 N           5.7112    0.8335   -0.4288 N.ar    1  UNL1       -0.2145
     31 H          -4.2687   -3.0305    2.0715 H       1  UNL1        0.0813
     32 H          -2.1204   -3.8583    3.0434 H       1  UNL1        0.1648
     33 H          -0.1100   -2.6184    2.3388 H       1  UNL1        0.0813
     34 H          -5.7255   -1.7130    0.7901 H       1  UNL1        0.0624
     35 H          -7.1024   -0.2123   -0.5979 H       1  UNL1        0.0618
     36 H          -5.9995    1.5428   -1.9595 H       1  UNL1        0.0618
     37 H          -3.5986    1.8071   -1.9333 H       1  UNL1        0.0624
     38 H          -2.3203    3.2415   -1.2681 H       1  UNL1        0.0813
     39 H          -0.3060    4.5284   -1.8825 H       1  UNL1        0.1648
     40 H           1.8630    3.3623   -1.4572 H       1  UNL1        0.0813
     41 H           3.3429    1.6520   -0.7856 H       1  UNL1        0.0646
     42 H           1.3038   -2.4331    0.8866 H       1  UNL1        0.0836
     43 H           7.6624   -2.1096    0.8071 H       1  UNL1        0.1048
     44 H           7.5600    1.6702   -0.7971 H       1  UNL1        0.1048
@<TRIPOS>BOND
     1     1     2   ar
     2     2     3   ar
     3     3     4   ar
     4     4     5   ar
     5     5     6   ar
     6     6     7   ar
     7     7     8   ar
     8     8     9   ar
     9     9    10   ar
    10    10    11   ar
    11    11    12   ar
    12    12    13   ar
    13    13    14   ar
    14    14    15   ar
    15    15    16   ar
    16    16    17   ar
    17    17    18   ar
    18    18    19   ar
    19    19    20   ar
    20    20    21   ar
    21    21    22   ar
    22    22    23   ar
    23    23    24   ar
    24    20    25    1
    25    25    26   ar
    26    26    27   ar
    27    27    28   ar
    28    28    29   ar
    29    29    30   ar
    30     5     1   ar
    31    11     6   ar
    32    24    12   ar
    33    30    25   ar
    34    24     4   ar
    35    17    13   ar
    36    23    18   ar
    37     1    31    1
    38     2    32    1
    39     3    33    1
    40     7    34    1
    41     8    35    1
    42     9    36    1
    43    10    37    1
    44    14    38    1
    45    15    39    1
    46    16    40    1
    47    19    41    1
    48    22    42    1
    49    27    43    1
    50    29    44    1
