@<TRIPOS>MOLECULE
*****
 32 36 0 0 0
SMALL
GASTEIGER

@<TRIPOS>ATOM
      1 C          -5.4264    1.1304   -0.1233 C.ar    1  UNL1        0.0094
      2 N          -4.8926    2.4087   -0.2127 N.ar    1  UNL1       -0.3659
      3 C          -3.5112    2.3566   -0.2289 C.ar    1  UNL1        0.0100
      4 C          -3.2185    1.0300   -0.1481 C.ar    1  UNL1        0.0086
      5 C          -4.3763    0.2437   -0.0813 C.ar    1  UNL1        0.0001
      6 C          -4.4830   -1.1400    0.0088 C.ar    1  UNL1       -0.0506
      7 C          -3.2230   -1.7847    0.0323 C.ar    1  UNL1       -0.0371
      8 C          -2.0213   -1.0289   -0.0331 C.ar    1  UNL1        0.0476
      9 N          -0.6940   -1.3995   -0.0281 N.ar    1  UNL1       -0.3537
     10 C           0.1366   -0.2906   -0.1109 C.ar    1  UNL1        0.0542
     11 C          -0.6726    0.8359   -0.1717 C.ar    1  UNL1       -0.0275
     12 C          -1.9749    0.3504   -0.1221 C.ar    1  UNL1        0.0094
     13 C           1.5731   -0.3866   -0.1251 C.ar    1  UNL1        0.0381
     14 C           2.4734    0.6568   -0.2046 C.ar    1  UNL1       -0.0195
     15 C           3.8313    0.2260   -0.1962 C.ar    1  UNL1        0.0786
     16 N           4.9147    1.0476   -0.2642 N.ar    1  UNL1       -0.2544
     17 C           6.1129    0.4326   -0.2417 C.ar    1  UNL1        0.0283
     18 C           6.3095   -0.9343   -0.1569 C.ar    1  UNL1       -0.0425
     19 C           5.1995   -1.7698   -0.0877 C.ar    1  UNL1       -0.0445
     20 C           3.9368   -1.1607   -0.1089 C.ar    1  UNL1        0.0382
     21 S           2.3874   -1.8939   -0.0400 S.2     1  UNL1       -0.0852
     22 H          -6.4982    0.9893   -0.0991 H       1  UNL1        0.0813
     23 H          -5.4391    3.2584   -0.2595 H       1  UNL1        0.1648
     24 H          -2.9094    3.2516   -0.2948 H       1  UNL1        0.0813
     25 H          -5.4166   -1.6837    0.0569 H       1  UNL1        0.0625
     26 H          -3.1809   -2.8689    0.1012 H       1  UNL1        0.0638
     27 H          -0.3630   -2.3517    0.0282 H       1  UNL1        0.1659
     28 H          -0.3477    1.8643   -0.2421 H       1  UNL1        0.0645
     29 H           2.1880    1.6983   -0.2673 H       1  UNL1        0.0651
     30 H           6.9660    1.1051   -0.2969 H       1  UNL1        0.0830
     31 H           7.3134   -1.3453   -0.1448 H       1  UNL1        0.0633
     32 H           5.3061   -2.8471   -0.0202 H       1  UNL1        0.0630
@<TRIPOS>BOND
     1     1     2   ar
     2     2     3   ar
     3     3     4   ar
     4     4     5   ar
     5     5     6   ar
     6     6     7   ar
     7     7     8   ar
     8     8     9   ar
     9     9    10   ar
    10    10    11   ar
    11    11    12   ar
    12    10    13    1
    13    13    14   ar
    14    14    15   ar
    15    15    16   ar
    16    16    17   ar
    17    17    18   ar
    18    18    19   ar
    19    19    20   ar
    20    20    21   ar
    21     5     1   ar
    22    12     8   ar
    23    21    13   ar
    24    12     4   ar
    25    20    15   ar
    26     1    22    1
    27     2    23    1
    28     3    24    1
    29     6    25    1
    30     7    26    1
    31     9    27    1
    32    11    28    1
    33    14    29    1
    34    17    30    1
    35    18    31    1
    36    19    32    1
