@<TRIPOS>MOLECULE
*****
 48 55 0 0 0
SMALL
GASTEIGER

@<TRIPOS>ATOM
      1 C          -4.4093   -3.7451   -1.1091 C.ar    1  UNL1        0.0094
      2 N          -3.0816   -4.0623   -0.9954 N.ar    1  UNL1       -0.3659
      3 C          -2.3444   -2.9277   -0.7153 C.ar    1  UNL1        0.0100
      4 C          -3.1988   -1.8486   -0.6436 C.ar    1  UNL1        0.0077
      5 C          -4.5089   -2.3942   -0.8980 C.ar    1  UNL1        0.0000
      6 C          -5.7116   -1.7163   -0.9363 C.ar    1  UNL1       -0.0520
      7 C          -5.5021   -0.3564   -0.6849 C.ar    1  UNL1       -0.0527
      8 C          -4.1940    0.2301   -0.4241 C.ar    1  UNL1       -0.0075
      9 C          -4.0292    1.6090   -0.1752 C.ar    1  UNL1        0.0077
     10 C          -5.0197    2.5659   -0.1407 C.ar    1  UNL1        0.0100
     11 N          -4.4236    3.7742    0.1340 N.ar    1  UNL1       -0.3659
     12 C          -3.0667    3.6049    0.2757 C.ar    1  UNL1        0.0100
     13 C          -2.7939    2.2680    0.0886 C.ar    1  UNL1        0.0077
     14 C          -1.5255    1.6523    0.1454 C.ar    1  UNL1       -0.0074
     15 C          -0.3256    2.3739    0.4151 C.ar    1  UNL1       -0.0426
     16 C           0.8773    1.6645    0.4481 C.ar    1  UNL1        0.0214
     17 C           2.2437    1.9750    0.6706 C.ar    1  UNL1       -0.0080
     18 C           2.9558    0.7917    0.5638 C.ar    1  UNL1        0.1368
     19 O           2.0855   -0.2229    0.2869 O.2     1  UNL1       -0.4548
     20 C           0.8340    0.3049    0.2176 C.ar    1  UNL1        0.1363
     21 C          -0.3334   -0.4194   -0.0484 C.ar    1  UNL1       -0.0104
     22 C          -1.5867    0.2335   -0.0972 C.ar    1  UNL1       -0.0054
     23 C          -2.8963   -0.4627   -0.3764 C.ar    1  UNL1       -0.0003
     24 C           4.3693    0.4661    0.6868 C.ar    1  UNL1        0.0255
     25 C           5.3454    1.4629    0.9740 C.ar    1  UNL1       -0.0505
     26 C           6.7500    1.2203    1.1096 C.ar    1  UNL1       -0.0605
     27 C           7.3399   -0.0486    0.9734 C.ar    1  UNL1       -0.0535
     28 C           6.3947   -1.0335    0.6920 C.ar    1  UNL1       -0.0102
     29 C           6.7600   -2.3460    0.5204 C.ar    1  UNL1       -0.0166
     30 S           5.3980   -3.3307    0.1869 S.2     1  UNL1       -0.1039
     31 C           4.3205   -1.9920    0.2737 C.ar    1  UNL1       -0.0159
     32 C           4.9666   -0.8077    0.5507 C.ar    1  UNL1       -0.0002
     33 H          -5.1473   -4.5050   -1.3273 H       1  UNL1        0.0813
     34 H          -2.6933   -4.9906   -1.1005 H       1  UNL1        0.1648
     35 H          -1.2819   -3.0512   -0.6027 H       1  UNL1        0.0813
     36 H          -6.6821   -2.1487   -1.1294 H       1  UNL1        0.0624
     37 H          -6.3796    0.2876   -0.6881 H       1  UNL1        0.0624
     38 H          -6.0899    2.5159   -0.2830 H       1  UNL1        0.0813
     39 H          -4.9117    4.6565    0.2189 H       1  UNL1        0.1648
     40 H          -2.4375    4.4559    0.4954 H       1  UNL1        0.0813
     41 H          -0.3332    3.4431    0.5911 H       1  UNL1        0.0631
     42 H           2.6549    2.9507    0.8836 H       1  UNL1        0.0661
     43 H          -0.2244   -1.4764   -0.2098 H       1  UNL1        0.0661
     44 H           5.0196    2.4956    1.1042 H       1  UNL1        0.0625
     45 H           7.3965    2.0702    1.3312 H       1  UNL1        0.0618
     46 H           8.4040   -0.2143    1.0791 H       1  UNL1        0.0624
     47 H           7.7455   -2.7882    0.5705 H       1  UNL1        0.0699
     48 H           3.2712   -2.1843    0.1105 H       1  UNL1        0.0700
@<TRIPOS>BOND
     1     1     2   ar
     2     2     3   ar
     3     3     4   ar
     4     4     5   ar
     5     5     6   ar
     6     6     7   ar
     7     7     8   ar
     8     8     9   ar
     9     9    10   ar
    10    10    11   ar
    11    11    12   ar
    12    12    13   ar
    13    13    14   ar
    14    14    15   ar
    15    15    16   ar
    16    16    17   ar
    17    17    18   ar
    18    18    19   ar
    19    19    20   ar
    20    20    21   ar
    21    21    22   ar
    22    22    23   ar
    23    18    24    1
    24    24    25   ar
    25    25    26   ar
    26    26    27   ar
    27    27    28   ar
    28    28    29   ar
    29    29    30   ar
    30    30    31   ar
    31    31    32   ar
    32     5     1   ar
    33    23     8   ar
    34    32    24   ar
    35    23     4   ar
    36    32    28   ar
    37    13     9   ar
    38    22    14   ar
    39    20    16   ar
    40     1    33    1
    41     2    34    1
    42     3    35    1
    43     6    36    1
    44     7    37    1
    45    10    38    1
    46    11    39    1
    47    12    40    1
    48    15    41    1
    49    17    42    1
    50    21    43    1
    51    25    44    1
    52    26    45    1
    53    27    46    1
    54    29    47    1
    55    31    48    1
