@<TRIPOS>MOLECULE
*****
 46 53 0 0 0
SMALL
GASTEIGER

@<TRIPOS>ATOM
      1 C          -6.1668    1.6922    0.9803 C.ar    1  UNL1        0.0094
      2 N          -5.2562    2.6054    1.4493 N.ar    1  UNL1       -0.3659
      3 C          -3.9706    2.1589    1.2114 C.ar    1  UNL1        0.0100
      4 C          -4.0430    0.9106    0.6325 C.ar    1  UNL1        0.0077
      5 C          -5.4463    0.6533    0.4505 C.ar    1  UNL1        0.0000
      6 C          -6.0245   -0.4352   -0.1764 C.ar    1  UNL1       -0.0520
      7 C          -5.0297   -1.2884   -0.6725 C.ar    1  UNL1       -0.0527
      8 C          -3.6007   -1.0466   -0.5089 C.ar    1  UNL1       -0.0059
      9 C          -2.6034   -1.9055   -1.0009 C.ar    1  UNL1        0.0282
     10 C          -2.7990   -3.1092   -1.6324 C.ar    1  UNL1        0.1000
     11 O          -1.6002   -3.7129   -1.8581 O.2     1  UNL1       -0.4698
     12 C          -0.6343   -2.8813   -1.3748 C.ar    1  UNL1        0.1000
     13 C          -1.1891   -1.7123   -0.9110 C.ar    1  UNL1        0.0288
     14 C          -0.5187   -0.6187   -0.2952 C.ar    1  UNL1        0.0047
     15 C          -1.4830    0.2028    0.3698 C.ar    1  UNL1        0.0099
     16 C          -0.8952    1.1131    1.2496 C.ar    1  UNL1        0.0366
     17 N           0.4324    1.3229    1.4690 N.ar    1  UNL1       -0.2543
     18 C           1.3268    0.6593    0.7422 C.ar    1  UNL1        0.0730
     19 C           2.6901    0.9828    0.9936 C.ar    1  UNL1       -0.0243
     20 C           3.8406    0.4772    0.3193 C.ar    1  UNL1        0.0319
     21 C           5.2155    0.8552    0.6377 C.ar    1  UNL1        0.1637
     22 N           5.3826    1.8729    1.4899 N.ar    1  UNL1       -0.2160
     23 C           6.6490    2.1742    1.7663 C.ar    1  UNL1        0.1200
     24 N           7.7226    1.5595    1.2809 N.ar    1  UNL1       -0.2241
     25 C           7.4372    0.5618    0.4506 C.ar    1  UNL1        0.1200
     26 N           6.2187    0.1632    0.0915 N.ar    1  UNL1       -0.2160
     27 C           3.4082   -0.3684   -0.7035 C.ar    1  UNL1        0.0312
     28 C           4.1630   -0.9644   -1.6833 C.ar    1  UNL1        0.1001
     29 O           3.3510   -1.6016   -2.5727 O.2     1  UNL1       -0.4698
     30 C           2.0662   -1.4174   -2.1556 C.ar    1  UNL1        0.1001
     31 C           2.0431   -0.7323   -0.9662 C.ar    1  UNL1        0.0303
     32 C           0.9049   -0.3021   -0.2190 C.ar    1  UNL1        0.0195
     33 C          -2.9677    0.0635    0.1956 C.ar    1  UNL1        0.0011
     34 H          -7.2295    1.8819    1.0491 H       1  UNL1        0.0813
     35 H          -5.4901    3.4948    1.8719 H       1  UNL1        0.1648
     36 H          -3.1540    2.8152    1.4680 H       1  UNL1        0.0813
     37 H          -7.0831   -0.6077   -0.3052 H       1  UNL1        0.0624
     38 H          -5.3592   -2.1753   -1.2119 H       1  UNL1        0.0624
     39 H          -3.6632   -3.6809   -1.9394 H       1  UNL1        0.1036
     40 H           0.3616   -3.2964   -1.4129 H       1  UNL1        0.1036
     41 H          -1.5004    1.7139    1.9177 H       1  UNL1        0.0836
     42 H           2.8604    1.7121    1.7917 H       1  UNL1        0.0646
     43 H           6.8199    2.9972    2.4519 H       1  UNL1        0.1048
     44 H           8.2760    0.0211    0.0254 H       1  UNL1        0.1048
     45 H           5.2167   -1.0023   -1.9221 H       1  UNL1        0.1036
     46 H           1.3214   -1.8062   -2.8341 H       1  UNL1        0.1036
@<TRIPOS>BOND
     1     1     2   ar
     2     2     3   ar
     3     3     4   ar
     4     4     5   ar
     5     5     6   ar
     6     6     7   ar
     7     7     8   ar
     8     8     9   ar
     9     9    10   ar
    10    10    11   ar
    11    11    12   ar
    12    12    13   ar
    13    13    14   ar
    14    14    15   ar
    15    15    16   ar
    16    16    17   ar
    17    17    18   ar
    18    18    19   ar
    19    19    20   ar
    20    20    21    1
    21    21    22   ar
    22    22    23   ar
    23    23    24   ar
    24    24    25   ar
    25    25    26   ar
    26    20    27   ar
    27    27    28   ar
    28    28    29   ar
    29    29    30   ar
    30    30    31   ar
    31    31    32   ar
    32    15    33   ar
    33     5     1   ar
    34    33     8   ar
    35    33     4   ar
    36    13     9   ar
    37    32    14   ar
    38    32    18   ar
    39    26    21   ar
    40    31    27   ar
    41     1    34    1
    42     2    35    1
    43     3    36    1
    44     6    37    1
    45     7    38    1
    46    10    39    1
    47    12    40    1
    48    16    41    1
    49    19    42    1
    50    23    43    1
    51    25    44    1
    52    28    45    1
    53    30    46    1
