@<TRIPOS>MOLECULE
*****
 45 52 0 0 0
SMALL
GASTEIGER

@<TRIPOS>ATOM
      1 C          -6.0068    2.4873    1.7196 C.ar    1  UNL1        0.0094
      2 N          -4.9692    3.3648    1.9322 N.ar    1  UNL1       -0.3659
      3 C          -3.7759    2.7881    1.5576 C.ar    1  UNL1        0.0101
      4 C          -4.0383    1.5188    1.0950 C.ar    1  UNL1        0.0092
      5 C          -5.4574    1.3413    1.2034 C.ar    1  UNL1        0.0001
      6 C          -6.1862    0.2161    0.8554 C.ar    1  UNL1       -0.0520
      7 C          -5.3336   -0.7837    0.3584 C.ar    1  UNL1       -0.0526
      8 C          -3.8887   -0.6266    0.2388 C.ar    1  UNL1       -0.0045
      9 C          -3.0195   -1.6159   -0.2563 C.ar    1  UNL1        0.0283
     10 C          -3.3557   -2.8688   -0.7032 C.ar    1  UNL1        0.1000
     11 O          -2.2347   -3.5328   -1.1029 O.2     1  UNL1       -0.4698
     12 C          -1.1734   -2.6950   -0.9087 C.ar    1  UNL1        0.1001
     13 C          -1.6013   -1.4985   -0.3880 C.ar    1  UNL1        0.0316
     14 C          -0.8582   -0.3631   -0.0379 C.ar    1  UNL1        0.0356
     15 C           0.5290   -0.1826   -0.1412 C.ar    1  UNL1        0.0584
     16 N           1.5539   -0.9862   -0.5832 N.ar    1  UNL1       -0.3531
     17 C           2.7732   -0.3529   -0.4887 C.ar    1  UNL1        0.0563
     18 C           2.5191    0.8995    0.0321 C.ar    1  UNL1       -0.0266
     19 C           1.1194    1.0165    0.2530 C.ar    1  UNL1        0.0190
     20 C           0.3025    2.0287    0.7505 C.ar    1  UNL1        0.0375
     21 N          -1.0388    1.8541    0.8503 N.ar    1  UNL1       -0.2536
     22 C          -1.6517    0.7092    0.4801 C.ar    1  UNL1        0.0820
     23 C          -3.1053    0.5580    0.6031 C.ar    1  UNL1        0.0179
     24 C           4.0174   -0.9686   -0.8848 C.ar    1  UNL1        0.0629
     25 S           4.0416   -2.5821   -1.5178 S.2     1  UNL1       -0.0909
     26 C           5.7394   -2.5809   -1.7300 C.ar    1  UNL1        0.0038
     27 C           6.2889   -1.3909   -1.3341 C.ar    1  UNL1        0.0968
     28 N           7.6262   -1.1424   -1.4046 N.ar    1  UNL1       -0.2514
     29 C           7.9072    0.1090   -0.9513 C.ar    1  UNL1        0.0464
     30 C           6.9613    1.0239   -0.4756 C.ar    1  UNL1        0.0464
     31 N           5.6219    0.7984   -0.3959 N.ar    1  UNL1       -0.2507
     32 C           5.3020   -0.4535   -0.8446 C.ar    1  UNL1        0.1053
     33 H          -7.0244    2.7661    1.9558 H       1  UNL1        0.0813
     34 H          -5.0637    4.2988    2.3086 H       1  UNL1        0.1648
     35 H          -2.8545    3.3447    1.6596 H       1  UNL1        0.0813
     36 H          -7.2565    0.1022    0.9450 H       1  UNL1        0.0624
     37 H          -5.7906   -1.7225    0.0491 H       1  UNL1        0.0624
     38 H          -4.2782   -3.4226   -0.8040 H       1  UNL1        0.1036
     39 H          -0.2255   -3.1219   -1.1940 H       1  UNL1        0.1036
     40 H           1.4497   -1.9239   -0.9362 H       1  UNL1        0.1659
     41 H           3.2602    1.6618    0.2369 H       1  UNL1        0.0645
     42 H           0.6855    2.9887    1.0773 H       1  UNL1        0.0836
     43 H           6.2515   -3.4436   -2.1309 H       1  UNL1        0.0715
     44 H           8.9595    0.3780   -0.9780 H       1  UNL1        0.0845
     45 H           7.2786    2.0048   -0.1324 H       1  UNL1        0.0845
@<TRIPOS>BOND
     1     1     2   ar
     2     2     3   ar
     3     3     4   ar
     4     4     5   ar
     5     5     6   ar
     6     6     7   ar
     7     7     8   ar
     8     8     9   ar
     9     9    10   ar
    10    10    11   ar
    11    11    12   ar
    12    12    13   ar
    13    13    14   ar
    14    14    15   ar
    15    15    16   ar
    16    16    17   ar
    17    17    18   ar
    18    18    19   ar
    19    19    20   ar
    20    20    21   ar
    21    21    22   ar
    22    22    23   ar
    23    17    24    1
    24    24    25   ar
    25    25    26   ar
    26    26    27   ar
    27    27    28   ar
    28    28    29   ar
    29    29    30   ar
    30    30    31   ar
    31    31    32   ar
    32     5     1   ar
    33    23     8   ar
    34    32    24   ar
    35    23     4   ar
    36    32    27   ar
    37    13     9   ar
    38    22    14   ar
    39    19    15   ar
    40     1    33    1
    41     2    34    1
    42     3    35    1
    43     6    36    1
    44     7    37    1
    45    10    38    1
    46    12    39    1
    47    16    40    1
    48    18    41    1
    49    20    42    1
    50    26    43    1
    51    29    44    1
    52    30    45    1
