@<TRIPOS>MOLECULE
*****
 43 50 0 0 0
SMALL
GASTEIGER

@<TRIPOS>ATOM
      1 C          -5.7377   -2.4010    0.0423 C.ar    1  UNL1        0.0094
      2 N          -4.6754   -3.2732    0.1015 N.ar    1  UNL1       -0.3659
      3 C          -3.4815   -2.5778    0.0787 C.ar    1  UNL1        0.0101
      4 C          -3.7794   -1.2370    0.0037 C.ar    1  UNL1        0.0091
      5 C          -5.2102   -1.1374   -0.0187 C.ar    1  UNL1        0.0001
      6 C          -5.9603    0.0295   -0.0899 C.ar    1  UNL1       -0.0520
      7 C          -5.1274    1.1668   -0.1406 C.ar    1  UNL1       -0.0526
      8 C          -3.6756    1.1062   -0.1200 C.ar    1  UNL1       -0.0045
      9 C          -2.8162    2.2329   -0.1698 C.ar    1  UNL1        0.0283
     10 C          -3.1710    3.5618   -0.2450 C.ar    1  UNL1        0.1000
     11 O          -2.0529    4.3615   -0.2742 O.2     1  UNL1       -0.4698
     12 C          -0.9544    3.5397   -0.2173 C.ar    1  UNL1        0.1001
     13 C          -1.4094    2.2623   -0.1546 C.ar    1  UNL1        0.0307
     14 C          -0.7652    1.0144   -0.0804 C.ar    1  UNL1        0.0253
     15 C           0.6091    0.7891   -0.0519 C.ar    1  UNL1        0.0458
     16 S           2.1404    1.5670   -0.0752 S.2     1  UNL1       -0.0860
     17 C           2.9757    0.0381    0.0164 C.ar    1  UNL1        0.0240
     18 C           2.0755   -1.0206    0.0621 C.ar    1  UNL1       -0.0229
     19 C           0.7302   -0.5683    0.0219 C.ar    1  UNL1        0.0553
     20 N          -0.5327   -1.1448    0.0376 N.ar    1  UNL1       -0.3532
     21 C          -1.4907   -0.1566   -0.0266 C.ar    1  UNL1        0.0571
     22 C          -2.9091   -0.1378   -0.0445 C.ar    1  UNL1        0.0159
     23 C           4.4606    0.0190    0.0351 C.ar    1  UNL1        0.0169
     24 C           5.2718    1.1872   -0.0174 C.ar    1  UNL1       -0.0513
     25 C           6.6885    1.1910   -0.0006 C.ar    1  UNL1       -0.0590
     26 C           7.4516    0.0217    0.0707 C.ar    1  UNL1       -0.0335
     27 C           6.7244   -1.1876    0.1264 C.ar    1  UNL1        0.1005
     28 N           7.2775   -2.4079    0.1980 N.ar    1  UNL1       -0.1908
     29 S           6.0264   -3.4897    0.2406 S.2     1  UNL1        0.1165
     30 N           4.7299   -2.4649    0.1706 N.ar    1  UNL1       -0.1902
     31 C           5.2033   -1.2053    0.1092 C.ar    1  UNL1        0.1080
     32 H          -6.7557   -2.7661    0.0496 H       1  UNL1        0.0813
     33 H          -4.7569   -4.2803    0.1543 H       1  UNL1        0.1648
     34 H          -2.5557   -3.1285    0.1192 H       1  UNL1        0.0813
     35 H          -7.0395    0.0827   -0.1056 H       1  UNL1        0.0624
     36 H          -5.6119    2.1405   -0.1983 H       1  UNL1        0.0624
     37 H          -4.1090    4.0966   -0.2847 H       1  UNL1        0.1036
     38 H           0.0070    4.0312   -0.2320 H       1  UNL1        0.1036
     39 H           2.3452   -2.0661    0.1211 H       1  UNL1        0.0650
     40 H          -0.6795   -2.1426    0.0890 H       1  UNL1        0.1659
     41 H           4.8001    2.1689   -0.0752 H       1  UNL1        0.0624
     42 H           7.2054    2.1504   -0.0455 H       1  UNL1        0.0618
     43 H           8.5348    0.0351    0.0829 H       1  UNL1        0.0640
@<TRIPOS>BOND
     1     1     2   ar
     2     2     3   ar
     3     3     4   ar
     4     4     5   ar
     5     5     6   ar
     6     6     7   ar
     7     7     8   ar
     8     8     9   ar
     9     9    10   ar
    10    10    11   ar
    11    11    12   ar
    12    12    13   ar
    13    13    14   ar
    14    14    15   ar
    15    15    16   ar
    16    16    17   ar
    17    17    18   ar
    18    18    19   ar
    19    19    20   ar
    20    20    21   ar
    21    21    22   ar
    22    17    23    1
    23    23    24   ar
    24    24    25   ar
    25    25    26   ar
    26    26    27   ar
    27    27    28   ar
    28    28    29   ar
    29    29    30   ar
    30    30    31   ar
    31     5     1   ar
    32    22     8   ar
    33    31    23   ar
    34    22     4   ar
    35    31    27   ar
    36    13     9   ar
    37    21    14   ar
    38    19    15   ar
    39     1    32    1
    40     2    33    1
    41     3    34    1
    42     6    35    1
    43     7    36    1
    44    10    37    1
    45    12    38    1
    46    18    39    1
    47    20    40    1
    48    24    41    1
    49    25    42    1
    50    26    43    1
