@<TRIPOS>MOLECULE
*****
 48 55 0 0 0
SMALL
GASTEIGER

@<TRIPOS>ATOM
      1 C           6.3037   -0.9257   -2.5741 C.ar    1  UNL1        0.0094
      2 N           5.2586   -1.3695   -3.3442 N.ar    1  UNL1       -0.3659
      3 C           4.0594   -1.1058   -2.7124 C.ar    1  UNL1        0.0100
      4 C           4.3208   -0.4190   -1.5460 C.ar    1  UNL1        0.0078
      5 C           5.7538   -0.3658   -1.4502 C.ar    1  UNL1        0.0000
      6 C           6.5018    0.1277   -0.3998 C.ar    1  UNL1       -0.0519
      7 C           5.6484    0.5463    0.6305 C.ar    1  UNL1       -0.0513
      8 C           4.1920    0.4964    0.5679 C.ar    1  UNL1        0.0115
      9 C           3.4406    0.9351    1.6960 C.ar    1  UNL1        0.1082
     10 N           3.9730    1.4291    2.8322 N.ar    1  UNL1       -0.1901
     11 S           2.7222    1.8518    3.8148 S.2     1  UNL1        0.1165
     12 N           1.4531    1.4067    2.8700 N.ar    1  UNL1       -0.1901
     13 C           1.9290    0.8779    1.7281 C.ar    1  UNL1        0.1088
     14 C           1.1411    0.3851    0.6155 C.ar    1  UNL1        0.0192
     15 C           1.9211    0.1082   -0.5557 C.ar    1  UNL1       -0.0067
     16 C           1.1888   -0.0488   -1.7440 C.ar    1  UNL1       -0.0528
     17 C          -0.2088   -0.0279   -1.8107 C.ar    1  UNL1       -0.0534
     18 C          -0.9968    0.0920   -0.6752 C.ar    1  UNL1       -0.0160
     19 C          -2.4286    0.0501   -0.8599 C.ar    1  UNL1       -0.0442
     20 C          -3.4018    0.1066    0.1663 C.ar    1  UNL1        0.0101
     21 C          -4.8429    0.0417   -0.0457 C.ar    1  UNL1        0.0716
     22 C          -5.4228   -0.9424   -0.8469 C.ar    1  UNL1       -0.0357
     23 C          -6.8036   -0.9436   -1.0334 C.ar    1  UNL1       -0.0583
     24 C          -7.5720    0.0376   -0.4220 C.ar    1  UNL1       -0.0436
     25 C          -6.9239    0.9812    0.3548 C.ar    1  UNL1        0.0283
     26 N          -5.5881    1.0040    0.5536 N.ar    1  UNL1       -0.2550
     27 C          -2.7578    0.1606    1.4008 C.ar    1  UNL1        0.0092
     28 C          -3.3735    0.1074    2.6291 C.ar    1  UNL1        0.0101
     29 N          -2.3859    0.0851    3.5783 N.ar    1  UNL1       -0.3659
     30 C          -1.1515    0.0824    2.9692 C.ar    1  UNL1        0.0100
     31 C          -1.3333    0.2168    1.6119 C.ar    1  UNL1        0.0084
     32 C          -0.3264    0.2492    0.5854 C.ar    1  UNL1        0.0011
     33 C           3.3914    0.0516   -0.5512 C.ar    1  UNL1        0.0011
     34 H           7.3283   -1.0760   -2.8868 H       1  UNL1        0.0813
     35 H           5.3531   -1.8599   -4.2243 H       1  UNL1        0.1648
     36 H           3.1536   -1.4731   -3.1690 H       1  UNL1        0.0813
     37 H           7.5795    0.1585   -0.3377 H       1  UNL1        0.0624
     38 H           6.1174    0.9290    1.5396 H       1  UNL1        0.0624
     39 H           1.6977   -0.1157   -2.6994 H       1  UNL1        0.0624
     40 H          -0.6677   -0.1281   -2.7937 H       1  UNL1        0.0624
     41 H          -2.8040   -0.0256   -1.8834 H       1  UNL1        0.0630
     42 H          -4.8121   -1.7092   -1.3127 H       1  UNL1        0.0639
     43 H          -7.2724   -1.7053   -1.6494 H       1  UNL1        0.0619
     44 H          -8.6484    0.0670   -0.5462 H       1  UNL1        0.0633
     45 H          -7.4769    1.7713    0.8546 H       1  UNL1        0.0830
     46 H          -4.4166    0.0677    2.9136 H       1  UNL1        0.0813
     47 H          -2.5390    0.0275    4.5763 H       1  UNL1        0.1648
     48 H          -0.2739   -0.0287    3.5856 H       1  UNL1        0.0813
@<TRIPOS>BOND
     1     1     2   ar
     2     2     3   ar
     3     3     4   ar
     4     4     5   ar
     5     5     6   ar
     6     6     7   ar
     7     7     8   ar
     8     8     9   ar
     9     9    10   ar
    10    10    11   ar
    11    11    12   ar
    12    12    13   ar
    13    13    14   ar
    14    14    15   ar
    15    15    16   ar
    16    16    17   ar
    17    17    18   ar
    18    18    19   ar
    19    19    20   ar
    20    20    21    1
    21    21    22   ar
    22    22    23   ar
    23    23    24   ar
    24    24    25   ar
    25    25    26   ar
    26    20    27   ar
    27    27    28   ar
    28    28    29   ar
    29    29    30   ar
    30    30    31   ar
    31    31    32   ar
    32    15    33   ar
    33     5     1   ar
    34    33     8   ar
    35    33     4   ar
    36    13     9   ar
    37    32    14   ar
    38    32    18   ar
    39    26    21   ar
    40    31    27   ar
    41     1    34    1
    42     2    35    1
    43     3    36    1
    44     6    37    1
    45     7    38    1
    46    16    39    1
    47    17    40    1
    48    19    41    1
    49    22    42    1
    50    23    43    1
    51    24    44    1
    52    25    45    1
    53    28    46    1
    54    29    47    1
    55    30    48    1
