@<TRIPOS>MOLECULE
*****
 42 47 0 0 0
SMALL
GASTEIGER

@<TRIPOS>ATOM
      1 SI         -1.8057    0.1049    0.7119 Si      1  UNL1        0.0000
      2 C          -0.5702   -0.4498   -0.6004 C.2     1  UNL1        0.0000
      3 C          -1.2099   -0.9695   -1.6658 C.2     1  UNL1        0.0000
      4 C          -2.6626   -0.9601   -1.5791 C.2     1  UNL1        0.0000
      5 C          -3.1945   -0.4561   -0.4401 C.2     1  UNL1        0.0000
      6 C          -4.6243   -0.3633   -0.1596 C.ar    1  UNL1        0.0000
      7 N          -5.4891   -0.8280   -1.1286 N.ar    1  UNL1        0.0000
      8 C          -6.8479   -0.7912   -0.9730 C.ar    1  UNL1        0.0000
      9 C          -7.5536   -0.3094    0.1199 C.ar    1  UNL1        0.0000
     10 C          -6.7257    0.1801    1.1452 C.ar    1  UNL1        0.0000
     11 N          -7.1647    0.6985    2.3032 N.ar    1  UNL1        0.0000
     12 S          -5.8189    1.1271    3.1692 S.2     1  UNL1        0.0000
     13 N          -4.6214    0.6780    2.1174 N.ar    1  UNL1        0.0000
     14 C          -5.2175    0.1633    1.0251 C.ar    1  UNL1        0.0000
     15 C           0.8610   -0.3868   -0.4025 C.ar    1  UNL1        0.0000
     16 C           1.6922   -1.5216   -0.2528 C.ar    1  UNL1        0.0000
     17 C           3.1141   -1.4561   -0.0515 C.ar    1  UNL1        0.0000
     18 C           3.8610   -0.2503    0.0205 C.ar    1  UNL1        0.0000
     19 C           5.2946   -0.2143    0.2181 C.ar    1  UNL1        0.0000
     20 C           6.3152   -1.1031   -0.0644 C.ar    1  UNL1        0.0000
     21 C           7.5146   -0.5133    0.4038 C.ar    1  UNL1        0.0000
     22 C           7.1540    0.6926    0.9541 C.ar    1  UNL1        0.0000
     23 O           5.8139    0.8793    0.8514 O.2     1  UNL1        0.0000
     24 C           3.0280    0.8656   -0.1521 C.ar    1  UNL1        0.0000
     25 C           3.3806    2.1937   -0.2035 C.ar    1  UNL1        0.0000
     26 N           2.2333    2.9236   -0.4179 N.ar    1  UNL1        0.0000
     27 C           1.1475    2.0837   -0.5244 C.ar    1  UNL1        0.0000
     28 C           1.6053    0.7986   -0.3542 C.ar    1  UNL1        0.0000
     29 H          -1.7142   -0.7279    1.9402 H       1  UNL1        0.0000
     30 H          -1.7952    1.5803    0.9017 H       1  UNL1        0.0000
     31 H          -0.7110   -1.3768   -2.5370 H       1  UNL1        0.0000
     32 H          -3.2545   -1.3486   -2.4010 H       1  UNL1        0.0000
     33 H          -7.3932   -1.1950   -1.8261 H       1  UNL1        0.0000
     34 H          -8.6321   -0.3095    0.1795 H       1  UNL1        0.0000
     35 H           1.2333   -2.5108   -0.2820 H       1  UNL1        0.0000
     36 H           3.6399   -2.4045    0.0630 H       1  UNL1        0.0000
     37 H           6.2058   -2.0596   -0.5554 H       1  UNL1        0.0000
     38 H           8.5151   -0.9179    0.3505 H       1  UNL1        0.0000
     39 H           7.7002    1.4910    1.4362 H       1  UNL1        0.0000
     40 H           4.3348    2.6947   -0.1141 H       1  UNL1        0.0000
     41 H           2.1974    3.9309   -0.5034 H       1  UNL1        0.0000
     42 H           0.1644    2.4883   -0.7219 H       1  UNL1        0.0000
@<TRIPOS>BOND
     1     1     2    1
     2     2     3    2
     3     3     4    1
     4     4     5    2
     5     5     6    1
     6     6     7   ar
     7     7     8   ar
     8     8     9   ar
     9     9    10   ar
    10    10    11   ar
    11    11    12   ar
    12    12    13   ar
    13    13    14   ar
    14     2    15    1
    15    15    16   ar
    16    16    17   ar
    17    17    18   ar
    18    18    19    1
    19    19    20   ar
    20    20    21   ar
    21    21    22   ar
    22    22    23   ar
    23    18    24   ar
    24    24    25   ar
    25    25    26   ar
    26    26    27   ar
    27    27    28   ar
    28     5     1    1
    29    14     6   ar
    30    28    15   ar
    31    14    10   ar
    32    23    19   ar
    33    28    24   ar
    34     1    29    1
    35     1    30    1
    36     3    31    1
    37     4    32    1
    38     8    33    1
    39     9    34    1
    40    16    35    1
    41    17    36    1
    42    20    37    1
    43    21    38    1
    44    22    39    1
    45    25    40    1
    46    26    41    1
    47    27    42    1
