@<TRIPOS>MOLECULE
*****
 46 53 0 0 0
SMALL
GASTEIGER

@<TRIPOS>ATOM
      1 C          -6.7519   -1.6159   -0.7628 C.ar    1  UNL1        0.0094
      2 N          -5.8993   -2.6899   -0.8010 N.ar    1  UNL1       -0.3659
      3 C          -4.5955   -2.2690   -0.6152 C.ar    1  UNL1        0.0100
      4 C          -4.5961   -0.8979   -0.4835 C.ar    1  UNL1        0.0077
      5 C          -5.9744   -0.5068   -0.5565 C.ar    1  UNL1        0.0000
      6 C          -6.4783    0.7713   -0.4302 C.ar    1  UNL1       -0.0520
      7 C          -5.4288    1.6757   -0.1914 C.ar    1  UNL1       -0.0534
      8 C          -4.0290    1.3300   -0.1064 C.ar    1  UNL1       -0.0166
      9 C          -3.1325    2.3593    0.1480 C.ar    1  UNL1       -0.0534
     10 C          -1.7572    2.1296    0.2584 C.ar    1  UNL1       -0.0527
     11 C          -1.1724    0.8572    0.1080 C.ar    1  UNL1       -0.0060
     12 C          -2.0494   -0.2113   -0.1941 C.ar    1  UNL1        0.0092
     13 C          -1.4197   -1.4357   -0.4314 C.ar    1  UNL1        0.0366
     14 N          -0.0905   -1.7001   -0.3722 N.ar    1  UNL1       -0.2543
     15 C           0.7428   -0.7199   -0.0503 C.ar    1  UNL1        0.0728
     16 C           2.1126   -1.0999   -0.0055 C.ar    1  UNL1       -0.0272
     17 C           3.2127   -0.2668    0.3123 C.ar    1  UNL1       -0.0016
     18 C           4.5903   -0.7080    0.3613 C.ar    1  UNL1        0.0291
     19 C           5.0501   -1.7524    1.1770 C.ar    1  UNL1        0.0375
     20 N           6.3275   -2.2486    1.2821 N.ar    1  UNL1       -0.2604
     21 C           7.3397   -1.7268    0.5314 C.ar    1  UNL1        0.0557
     22 C           7.0341   -0.6731   -0.3511 C.ar    1  UNL1        0.1185
     23 N           7.8921   -0.0408   -1.1680 N.ar    1  UNL1       -0.1892
     24 S           7.0050    1.0958   -1.9894 S.2     1  UNL1        0.1165
     25 N           5.5016    0.8436   -1.3381 N.ar    1  UNL1       -0.1901
     26 C           5.6215   -0.1518   -0.4401 C.ar    1  UNL1        0.1105
     27 C           2.7460    1.0088    0.6121 C.ar    1  UNL1        0.0284
     28 C           3.4890    2.0838    1.0277 C.ar    1  UNL1        0.1000
     29 O           2.6682    3.1426    1.2662 O.2     1  UNL1       -0.4698
     30 C           1.3906    2.7389    1.0005 C.ar    1  UNL1        0.1001
     31 C           1.3729    1.4311    0.5787 C.ar    1  UNL1        0.0302
     32 C           0.2567    0.6000    0.2216 C.ar    1  UNL1        0.0188
     33 C          -3.4925    0.0031   -0.2678 C.ar    1  UNL1        0.0004
     34 H          -7.8196   -1.7481   -0.8744 H       1  UNL1        0.0813
     35 H          -6.1828   -3.6533   -0.9268 H       1  UNL1        0.1648
     36 H          -3.8286   -3.0249   -0.5877 H       1  UNL1        0.0813
     37 H          -7.5181    1.0579   -0.4845 H       1  UNL1        0.0624
     38 H          -5.7136    2.7219   -0.0594 H       1  UNL1        0.0624
     39 H          -3.4874    3.3821    0.2702 H       1  UNL1        0.0624
     40 H          -1.1515    3.0075    0.4377 H       1  UNL1        0.0624
     41 H          -1.9790   -2.3112   -0.7272 H       1  UNL1        0.0836
     42 H           2.3245   -2.1436   -0.2546 H       1  UNL1        0.0645
     43 H           4.3455   -2.2647    1.8351 H       1  UNL1        0.0836
     44 H           8.3282   -2.1505    0.6480 H       1  UNL1        0.0852
     45 H           4.5396    2.2646    1.2068 H       1  UNL1        0.1036
     46 H           0.6568    3.5061    1.1866 H       1  UNL1        0.1036
@<TRIPOS>BOND
     1     1     2   ar
     2     2     3   ar
     3     3     4   ar
     4     4     5   ar
     5     5     6   ar
     6     6     7   ar
     7     7     8   ar
     8     8     9   ar
     9     9    10   ar
    10    10    11   ar
    11    11    12   ar
    12    12    13   ar
    13    13    14   ar
    14    14    15   ar
    15    15    16   ar
    16    16    17   ar
    17    17    18    1
    18    18    19   ar
    19    19    20   ar
    20    20    21   ar
    21    21    22   ar
    22    22    23   ar
    23    23    24   ar
    24    24    25   ar
    25    25    26   ar
    26    17    27   ar
    27    27    28   ar
    28    28    29   ar
    29    29    30   ar
    30    30    31   ar
    31    31    32   ar
    32    12    33   ar
    33     5     1   ar
    34    33     8   ar
    35    33     4   ar
    36    32    11   ar
    37    32    15   ar
    38    26    18   ar
    39    31    27   ar
    40    26    22   ar
    41     1    34    1
    42     2    35    1
    43     3    36    1
    44     6    37    1
    45     7    38    1
    46     9    39    1
    47    10    40    1
    48    13    41    1
    49    16    42    1
    50    19    43    1
    51    21    44    1
    52    28    45    1
    53    30    46    1
