@<TRIPOS>MOLECULE
*****
 40 46 0 0 0
SMALL
GASTEIGER

@<TRIPOS>ATOM
      1 C          -6.0428   -0.0120    0.7120 C.ar    1  UNL1        0.0094
      2 N          -5.3621   -0.3712    1.8512 N.ar    1  UNL1       -0.3659
      3 C          -4.0021   -0.3494    1.6148 C.ar    1  UNL1        0.0101
      4 C          -3.8035   -0.0708    0.2820 C.ar    1  UNL1        0.0092
      5 C          -5.0966    0.2224   -0.2508 C.ar    1  UNL1        0.0001
      6 C          -5.3653    0.7191   -1.5089 C.ar    1  UNL1       -0.0506
      7 C          -4.1502    0.9883   -2.1751 C.ar    1  UNL1       -0.0351
      8 C          -2.8382    0.7375   -1.6805 C.ar    1  UNL1        0.0722
      9 N          -1.8474    1.1718   -2.4622 N.ar    1  UNL1       -0.2543
     10 C          -0.5659    1.0301   -2.0464 C.ar    1  UNL1        0.0371
     11 C          -0.1587    0.3614   -0.8903 C.ar    1  UNL1        0.0158
     12 C           1.2484    0.2767   -0.5831 C.ar    1  UNL1        0.0298
     13 S           2.6174    0.9823   -1.3848 S.2     1  UNL1       -0.0845
     14 C           3.7607    0.3189   -0.2807 C.ar    1  UNL1        0.0575
     15 C           3.1276   -0.4486    0.6834 C.ar    1  UNL1       -0.0356
     16 C           1.7347   -0.4492    0.4881 C.ar    1  UNL1       -0.0013
     17 C           0.7789   -1.1824    1.2570 C.ar    1  UNL1       -0.0020
     18 C           1.0984   -2.0401    2.2711 C.ar    1  UNL1       -0.0160
     19 S          -0.3305   -2.8336    2.7958 S.2     1  UNL1       -0.1038
     20 C          -1.2943   -2.0029    1.6300 C.ar    1  UNL1       -0.0160
     21 C          -0.5953   -1.0446    0.9246 C.ar    1  UNL1       -0.0018
     22 C          -1.1807   -0.2143   -0.0851 C.ar    1  UNL1        0.0027
     23 C          -2.5680    0.0917   -0.4253 C.ar    1  UNL1        0.0178
     24 C           5.1980    0.5812   -0.4316 C.ar    1  UNL1        0.1695
     25 N           5.9956    0.0088    0.4753 N.ar    1  UNL1       -0.2155
     26 C           7.2877    0.2717    0.3030 C.ar    1  UNL1        0.1201
     27 N           7.8128    1.0258   -0.6595 N.ar    1  UNL1       -0.2241
     28 C           6.9148    1.5379   -1.4977 C.ar    1  UNL1        0.1201
     29 N           5.5996    1.3562   -1.4408 N.ar    1  UNL1       -0.2155
     30 H          -7.1203    0.0823    0.7154 H       1  UNL1        0.0813
     31 H          -5.7906   -0.5588    2.7487 H       1  UNL1        0.1648
     32 H          -3.3253   -0.5042    2.4422 H       1  UNL1        0.0813
     33 H          -6.3373    0.9527   -1.9168 H       1  UNL1        0.0625
     34 H          -4.2191    1.4570   -3.1594 H       1  UNL1        0.0639
     35 H           0.1498    1.4780   -2.7319 H       1  UNL1        0.0836
     36 H           3.6690   -0.9680    1.4647 H       1  UNL1        0.0636
     37 H           2.0557   -2.2875    2.7071 H       1  UNL1        0.0700
     38 H          -2.3253   -2.3055    1.5331 H       1  UNL1        0.0700
     39 H           7.9790   -0.1696    1.0131 H       1  UNL1        0.1048
     40 H           7.2911    2.1613   -2.3019 H       1  UNL1        0.1048
@<TRIPOS>BOND
     1     1     2   ar
     2     2     3   ar
     3     3     4   ar
     4     4     5   ar
     5     5     6   ar
     6     6     7   ar
     7     7     8   ar
     8     8     9   ar
     9     9    10   ar
    10    10    11   ar
    11    11    12   ar
    12    12    13   ar
    13    13    14   ar
    14    14    15   ar
    15    15    16   ar
    16    16    17   ar
    17    17    18   ar
    18    18    19   ar
    19    19    20   ar
    20    20    21   ar
    21    21    22   ar
    22    22    23   ar
    23    14    24    1
    24    24    25   ar
    25    25    26   ar
    26    26    27   ar
    27    27    28   ar
    28    28    29   ar
    29     5     1   ar
    30    23     8   ar
    31    29    24   ar
    32    23     4   ar
    33    22    11   ar
    34    16    12   ar
    35    21    17   ar
    36     1    30    1
    37     2    31    1
    38     3    32    1
    39     6    33    1
    40     7    34    1
    41    10    35    1
    42    15    36    1
    43    18    37    1
    44    20    38    1
    45    26    39    1
    46    28    40    1
