@<TRIPOS>MOLECULE
*****
 43 49 0 0 0
SMALL
GASTEIGER

@<TRIPOS>ATOM
      1 C           6.0708   -0.6156   -0.8485 C.ar    1  UNL1        0.0094
      2 N           5.2812   -0.3283   -1.9365 N.ar    1  UNL1       -0.3659
      3 C           3.9792   -0.1093   -1.5307 C.ar    1  UNL1        0.0101
      4 C           3.9059   -0.3545   -0.1797 C.ar    1  UNL1        0.0092
      5 C           5.2489   -0.5919    0.2473 C.ar    1  UNL1        0.0001
      6 C           5.6771   -0.7227    1.5519 C.ar    1  UNL1       -0.0506
      7 C           4.5912   -0.5028    2.4270 C.ar    1  UNL1       -0.0351
      8 C           3.2406   -0.2451    2.0546 C.ar    1  UNL1        0.0722
      9 N           2.4095    0.0088    3.0687 N.ar    1  UNL1       -0.2543
     10 C           1.1114    0.2983    2.8070 C.ar    1  UNL1        0.0360
     11 C           0.5023    0.2793    1.5599 C.ar    1  UNL1        0.0021
     12 C          -0.9114    0.5779    1.4578 C.ar    1  UNL1       -0.0441
     13 C          -1.6790    0.5014    0.2734 C.ar    1  UNL1       -0.0058
     14 C          -3.0887    0.7886    0.1896 C.ar    1  UNL1       -0.0065
     15 C          -3.6561    2.0881    0.2776 C.ar    1  UNL1       -0.0533
     16 C          -5.0691    2.3697    0.2018 C.ar    1  UNL1       -0.0605
     17 C          -6.0706    1.3851    0.0374 C.ar    1  UNL1       -0.0510
     18 C          -5.4944    0.1249   -0.0349 C.ar    1  UNL1        0.0204
     19 C          -6.1446   -1.0708   -0.1801 C.ar    1  UNL1        0.0994
     20 O          -5.2286   -2.0878   -0.1957 O.2     1  UNL1       -0.4698
     21 C          -3.9864   -1.5285   -0.0584 C.ar    1  UNL1        0.1000
     22 C          -4.0996   -0.1645    0.0360 C.ar    1  UNL1        0.0276
     23 C          -0.8775    0.0548   -0.7727 C.ar    1  UNL1        0.0282
     24 C          -1.2752   -0.2316   -2.0537 C.ar    1  UNL1        0.1000
     25 O          -0.2286   -0.7609   -2.7481 O.2     1  UNL1       -0.4698
     26 C           0.8458   -0.7916   -1.9049 C.ar    1  UNL1        0.1000
     27 C           0.5282   -0.2213   -0.6976 C.ar    1  UNL1        0.0288
     28 C           1.3504   -0.0689    0.4611 C.ar    1  UNL1        0.0041
     29 C           2.7795   -0.2323    0.6956 C.ar    1  UNL1        0.0179
     30 H           7.1363   -0.7652   -0.9595 H       1  UNL1        0.0813
     31 H           5.6163   -0.2255   -2.8860 H       1  UNL1        0.1648
     32 H           3.2617    0.2413   -2.2562 H       1  UNL1        0.0813
     33 H           6.6902   -0.8929    1.8844 H       1  UNL1        0.0625
     34 H           4.8085   -0.5134    3.4974 H       1  UNL1        0.0639
     35 H           0.5390    0.5353    3.7024 H       1  UNL1        0.0836
     36 H          -1.4398    0.8615    2.3721 H       1  UNL1        0.0630
     37 H          -2.9842    2.9394    0.4039 H       1  UNL1        0.0624
     38 H          -5.3811    3.4127    0.2771 H       1  UNL1        0.0618
     39 H          -7.1267    1.6068   -0.0157 H       1  UNL1        0.0625
     40 H          -7.1775   -1.3734   -0.2766 H       1  UNL1        0.1035
     41 H          -3.1623   -2.2283   -0.0492 H       1  UNL1        0.1036
     42 H          -2.2099   -0.1728   -2.5944 H       1  UNL1        0.1036
     43 H           1.7172   -1.2742   -2.3187 H       1  UNL1        0.1036
@<TRIPOS>BOND
     1     1     2   ar
     2     2     3   ar
     3     3     4   ar
     4     4     5   ar
     5     5     6   ar
     6     6     7   ar
     7     7     8   ar
     8     8     9   ar
     9     9    10   ar
    10    10    11   ar
    11    11    12   ar
    12    12    13   ar
    13    13    14    1
    14    14    15   ar
    15    15    16   ar
    16    16    17   ar
    17    17    18   ar
    18    18    19   ar
    19    19    20   ar
    20    20    21   ar
    21    21    22   ar
    22    13    23   ar
    23    23    24   ar
    24    24    25   ar
    25    25    26   ar
    26    26    27   ar
    27    27    28   ar
    28    28    29   ar
    29     5     1   ar
    30    29     8   ar
    31    29     4   ar
    32    28    11   ar
    33    22    14   ar
    34    27    23   ar
    35    22    18   ar
    36     1    30    1
    37     2    31    1
    38     3    32    1
    39     6    33    1
    40     7    34    1
    41    10    35    1
    42    12    36    1
    43    15    37    1
    44    16    38    1
    45    17    39    1
    46    19    40    1
    47    21    41    1
    48    24    42    1
    49    26    43    1
