@<TRIPOS>MOLECULE
*****
 32 37 0 0 0
SMALL
GASTEIGER

@<TRIPOS>ATOM
      1 C           5.7989   -0.1314    0.1672 C.ar    1  UNL1        0.0094
      2 N           5.6292   -0.5116   -1.1586 N.ar    1  UNL1       -0.3659
      3 C           4.2852   -0.5519   -1.4849 C.ar    1  UNL1        0.0101
      4 C           3.6492   -0.1914   -0.3393 C.ar    1  UNL1        0.0112
      5 C           4.5513    0.0765    0.7047 C.ar    1  UNL1        0.0002
      6 C           4.2730    0.4713    2.0179 C.ar    1  UNL1       -0.0491
      7 C           2.8842    0.6088    2.2946 C.ar    1  UNL1       -0.0181
      8 C           1.9403    0.3502    1.2765 C.ar    1  UNL1        0.1376
      9 O           0.5604    0.4324    1.3648 O.2     1  UNL1       -0.4505
     10 C           0.1747    0.0826    0.1130 C.ar    1  UNL1        0.1859
     11 C          -1.0879    0.0015   -0.3418 C.ar    1  UNL1        0.1855
     12 O          -2.2092    0.2482    0.3462 O.2     1  UNL1       -0.4474
     13 C          -3.1935    0.0122   -0.6000 C.ar    1  UNL1        0.1738
     14 C          -2.6635   -0.3702   -1.8356 C.ar    1  UNL1        0.0018
     15 C          -1.2683   -0.3675   -1.6310 C.ar    1  UNL1        0.0624
     16 S           0.3402   -0.6092   -2.2335 S.2     1  UNL1       -0.0810
     17 C           1.1724   -0.2167   -0.7727 C.ar    1  UNL1        0.0700
     18 C           2.3001   -0.0370    0.0007 C.ar    1  UNL1        0.0438
     19 C          -4.5723    0.1990   -0.1530 C.ar    1  UNL1        0.1986
     20 N          -4.7751    0.5762    1.1105 N.ar    1  UNL1       -0.2132
     21 C          -6.0548    0.7226    1.4327 C.ar    1  UNL1        0.1201
     22 N          -7.0933    0.5284    0.6221 N.ar    1  UNL1       -0.2241
     23 C          -6.7579    0.1547   -0.6108 C.ar    1  UNL1        0.1201
     24 N          -5.5220   -0.0286   -1.0657 N.ar    1  UNL1       -0.2132
     25 H           6.7934   -0.0502    0.5847 H       1  UNL1        0.0813
     26 H           6.3849   -0.7285   -1.7955 H       1  UNL1        0.1648
     27 H           3.9494   -0.8273   -2.4750 H       1  UNL1        0.0813
     28 H           5.0296    0.6597    2.7690 H       1  UNL1        0.0625
     29 H           2.5467    0.9107    3.2812 H       1  UNL1        0.0655
     30 H          -3.2214   -0.6084   -2.7292 H       1  UNL1        0.0668
     31 H          -6.2738    1.0287    2.4501 H       1  UNL1        0.1048
     32 H          -7.5701   -0.0160   -1.3094 H       1  UNL1        0.1048
@<TRIPOS>BOND
     1     1     2   ar
     2     2     3   ar
     3     3     4   ar
     4     4     5   ar
     5     5     6   ar
     6     6     7   ar
     7     7     8   ar
     8     8     9   ar
     9     9    10   ar
    10    10    11   ar
    11    11    12   ar
    12    12    13   ar
    13    13    14   ar
    14    14    15   ar
    15    15    16   ar
    16    16    17   ar
    17    17    18   ar
    18    13    19    1
    19    19    20   ar
    20    20    21   ar
    21    21    22   ar
    22    22    23   ar
    23    23    24   ar
    24     5     1   ar
    25    18     8   ar
    26    24    19   ar
    27    18     4   ar
    28    17    10   ar
    29    15    11   ar
    30     1    25    1
    31     2    26    1
    32     3    27    1
    33     6    28    1
    34     7    29    1
    35    14    30    1
    36    21    31    1
    37    23    32    1
