@<TRIPOS>MOLECULE
*****
 33 38 0 0 0
SMALL
GASTEIGER

@<TRIPOS>ATOM
      1 C          -5.7182    1.0319   -0.1923 C.ar    1  UNL1        0.0094
      2 N          -5.0202    2.2207   -0.3446 N.ar    1  UNL1       -0.3659
      3 C          -3.6587    1.9919   -0.2762 C.ar    1  UNL1        0.0100
      4 C          -3.5427    0.6486   -0.0804 C.ar    1  UNL1        0.0076
      5 C          -4.7956    0.0267   -0.0239 C.ar    1  UNL1        0.0000
      6 C          -5.0931   -1.3143    0.1607 C.ar    1  UNL1       -0.0515
      7 C          -3.9269   -2.0988    0.3037 C.ar    1  UNL1       -0.0468
      8 C          -2.6178   -1.5258    0.2557 C.ar    1  UNL1        0.0206
      9 S          -1.0876   -2.3019    0.4071 S.2     1  UNL1       -0.0877
     10 C          -0.1945   -0.8296    0.2192 C.ar    1  UNL1        0.0271
     11 C          -1.0500    0.2486    0.0422 C.ar    1  UNL1       -0.0381
     12 C          -2.3869   -0.1747    0.0679 C.ar    1  UNL1       -0.0011
     13 C           1.2583   -0.7789    0.2499 C.ar    1  UNL1        0.0271
     14 C           2.0443    0.3546    0.1078 C.ar    1  UNL1       -0.0366
     15 C           3.4127    0.0321    0.1899 C.ar    1  UNL1        0.0180
     16 C           3.7210   -1.2968    0.3887 C.ar    1  UNL1        0.0221
     17 C           5.0467   -1.7794    0.4926 C.ar    1  UNL1       -0.0453
     18 C           6.1403   -0.9007    0.3951 C.ar    1  UNL1       -0.0324
     19 C           5.8407    0.4625    0.1917 C.ar    1  UNL1        0.1005
     20 N           6.7368    1.4611    0.0718 N.ar    1  UNL1       -0.1908
     21 S           5.8586    2.8716   -0.1536 S.2     1  UNL1        0.1165
     22 N           4.2915    2.2735   -0.1087 N.ar    1  UNL1       -0.1901
     23 C           4.4881    0.9773    0.0824 C.ar    1  UNL1        0.1081
     24 S           2.2456   -2.1809    0.4769 S.2     1  UNL1       -0.0877
     25 H          -6.7994    1.0288   -0.2201 H       1  UNL1        0.0813
     26 H          -5.4488    3.1263   -0.4857 H       1  UNL1        0.1648
     27 H          -2.9459    2.7983   -0.3732 H       1  UNL1        0.0813
     28 H          -6.0893   -1.7333    0.1947 H       1  UNL1        0.0624
     29 H          -4.0286   -3.1720    0.4550 H       1  UNL1        0.0629
     30 H          -0.7234    1.2705   -0.0959 H       1  UNL1        0.0635
     31 H           1.6538    1.3532   -0.0457 H       1  UNL1        0.0636
     32 H           5.2255   -2.8416    0.6497 H       1  UNL1        0.0629
     33 H           7.1636   -1.2494    0.4719 H       1  UNL1        0.0640
@<TRIPOS>BOND
     1     1     2   ar
     2     2     3   ar
     3     3     4   ar
     4     4     5   ar
     5     5     6   ar
     6     6     7   ar
     7     7     8   ar
     8     8     9   ar
     9     9    10   ar
    10    10    11   ar
    11    11    12   ar
    12    10    13    1
    13    13    14   ar
    14    14    15   ar
    15    15    16   ar
    16    16    17   ar
    17    17    18   ar
    18    18    19   ar
    19    19    20   ar
    20    20    21   ar
    21    21    22   ar
    22    22    23   ar
    23    16    24   ar
    24     5     1   ar
    25    12     8   ar
    26    24    13   ar
    27    12     4   ar
    28    23    15   ar
    29    23    19   ar
    30     1    25    1
    31     2    26    1
    32     3    27    1
    33     6    28    1
    34     7    29    1
    35    11    30    1
    36    14    31    1
    37    17    32    1
    38    18    33    1
