@<TRIPOS>MOLECULE
*****
 44 50 0 0 0
SMALL
GASTEIGER

@<TRIPOS>ATOM
      1 C          -6.5462    0.7500   -0.2042 C.ar    1  UNL1        0.0094
      2 N          -6.0511    0.2218   -1.3798 N.ar    1  UNL1       -0.3659
      3 C          -4.6800    0.0776   -1.2958 C.ar    1  UNL1        0.0100
      4 C          -4.3403    0.4538   -0.0287 C.ar    1  UNL1        0.0082
      5 C          -5.4792    0.9368    0.6427 C.ar    1  UNL1        0.0001
      6 C          -5.5799    1.5419    1.8807 C.ar    1  UNL1       -0.0515
      7 C          -4.3156    1.7277    2.4633 C.ar    1  UNL1       -0.0468
      8 C          -3.1110    1.2698    1.8401 C.ar    1  UNL1        0.0212
      9 S          -1.5036    1.5408    2.4015 S.2     1  UNL1       -0.0876
     10 C          -0.7674    0.6536    1.0942 C.ar    1  UNL1        0.0288
     11 C          -1.7851    0.1076    0.3066 C.ar    1  UNL1        0.0073
     12 C          -1.3466   -0.8369   -0.6857 C.ar    1  UNL1        0.0088
     13 C          -2.0429   -1.7411   -1.4340 C.ar    1  UNL1        0.0100
     14 N          -1.1046   -2.4068   -2.1927 N.ar    1  UNL1       -0.3659
     15 C           0.1627   -1.9711   -1.8637 C.ar    1  UNL1        0.0100
     16 C           0.0370   -1.0088   -0.8835 C.ar    1  UNL1        0.0078
     17 C           1.1044   -0.3906   -0.2050 C.ar    1  UNL1       -0.0071
     18 C           2.4894   -0.5754   -0.4438 C.ar    1  UNL1       -0.0456
     19 C           3.4494    0.0705    0.3487 C.ar    1  UNL1       -0.0158
     20 C           2.9961    0.8986    1.3884 C.ar    1  UNL1       -0.0534
     21 C           1.6282    1.0873    1.6353 C.ar    1  UNL1       -0.0524
     22 C           0.6501    0.4531    0.8426 C.ar    1  UNL1       -0.0029
     23 C           4.8855   -0.1165    0.1000 C.ar    1  UNL1        0.0002
     24 C           5.4486    0.0856   -1.1667 C.ar    1  UNL1       -0.0512
     25 C           6.8159   -0.0975   -1.3673 C.ar    1  UNL1       -0.0430
     26 C           7.5923   -0.4818   -0.2880 C.ar    1  UNL1        0.0276
     27 N           7.1000   -0.6909    0.9499 N.ar    1  UNL1       -0.2627
     28 C           5.7663   -0.5051    1.1111 C.ar    1  UNL1        0.0352
     29 C          -3.0703    0.5569    0.6451 C.ar    1  UNL1        0.0067
     30 H          -7.6001    0.9721   -0.1049 H       1  UNL1        0.0813
     31 H          -6.6048    0.0217   -2.2025 H       1  UNL1        0.1648
     32 H          -4.1165   -0.2322   -2.1618 H       1  UNL1        0.0813
     33 H          -6.4944    1.8998    2.3327 H       1  UNL1        0.0624
     34 H          -4.2489    2.2574    3.4123 H       1  UNL1        0.0629
     35 H          -3.0821   -2.0252   -1.4886 H       1  UNL1        0.0813
     36 H          -1.3102   -3.1463   -2.8519 H       1  UNL1        0.1648
     37 H           1.0250   -2.4227   -2.3342 H       1  UNL1        0.0813
     38 H           2.8102   -1.2392   -1.2426 H       1  UNL1        0.0630
     39 H           3.7114    1.4257    2.0184 H       1  UNL1        0.0624
     40 H           1.3464    1.7477    2.4520 H       1  UNL1        0.0624
     41 H           4.8266    0.4003   -2.0015 H       1  UNL1        0.0625
     42 H           7.2632    0.0608   -2.3421 H       1  UNL1        0.0633
     43 H           8.6624   -0.6354   -0.3936 H       1  UNL1        0.0829
     44 H           5.4096   -0.6955    2.1208 H       1  UNL1        0.0836
@<TRIPOS>BOND
     1     1     2   ar
     2     2     3   ar
     3     3     4   ar
     4     4     5   ar
     5     5     6   ar
     6     6     7   ar
     7     7     8   ar
     8     8     9   ar
     9     9    10   ar
    10    10    11   ar
    11    11    12   ar
    12    12    13   ar
    13    13    14   ar
    14    14    15   ar
    15    15    16   ar
    16    16    17   ar
    17    17    18   ar
    18    18    19   ar
    19    19    20   ar
    20    20    21   ar
    21    21    22   ar
    22    19    23    1
    23    23    24   ar
    24    24    25   ar
    25    25    26   ar
    26    26    27   ar
    27    27    28   ar
    28    11    29   ar
    29     5     1   ar
    30    29     8   ar
    31    29     4   ar
    32    22    10   ar
    33    28    23   ar
    34    16    12   ar
    35    22    17   ar
    36     1    30    1
    37     2    31    1
    38     3    32    1
    39     6    33    1
    40     7    34    1
    41    13    35    1
    42    14    36    1
    43    15    37    1
    44    18    38    1
    45    20    39    1
    46    21    40    1
    47    24    41    1
    48    25    42    1
    49    26    43    1
    50    28    44    1
