@<TRIPOS>MOLECULE
*****
 40 46 0 0 0
SMALL
GASTEIGER

@<TRIPOS>ATOM
      1 C          -6.2225   -0.5052    0.5818 C.ar    1  UNL1        0.0094
      2 N          -5.8520    0.8221    0.5011 N.ar    1  UNL1       -0.3659
      3 C          -4.4791    0.9258    0.3768 C.ar    1  UNL1        0.0100
      4 C          -4.0119   -0.3546    0.3075 C.ar    1  UNL1        0.0082
      5 C          -5.0748   -1.2574    0.4986 C.ar    1  UNL1        0.0001
      6 C          -5.0479   -2.6318    0.6392 C.ar    1  UNL1       -0.0515
      7 C          -3.7314   -3.1208    0.6453 C.ar    1  UNL1       -0.0468
      8 C          -2.5977   -2.2677    0.4595 C.ar    1  UNL1        0.0212
      9 S          -0.9389   -2.7370    0.5515 S.2     1  UNL1       -0.0860
     10 C          -0.3489   -1.1444    0.1769 C.ar    1  UNL1        0.0471
     11 C          -1.4420   -0.3078   -0.0670 C.ar    1  UNL1        0.0103
     12 C          -1.1061    0.9902   -0.5846 C.ar    1  UNL1        0.0294
     13 C          -1.8518    1.9776   -1.1524 C.ar    1  UNL1        0.1000
     14 O          -1.0147    3.0041   -1.5061 O.2     1  UNL1       -0.4698
     15 C           0.2611    2.6140   -1.2004 C.ar    1  UNL1        0.1000
     16 C           0.2527    1.3479   -0.6630 C.ar    1  UNL1        0.0297
     17 C           1.3817    0.5839   -0.3246 C.ar    1  UNL1        0.0129
     18 C           2.7511    0.9303   -0.3877 C.ar    1  UNL1       -0.0397
     19 C           3.7332   -0.0100   -0.0424 C.ar    1  UNL1        0.0379
     20 C           3.2595   -1.2678    0.3442 C.ar    1  UNL1        0.0390
     21 N           1.9518   -1.6419    0.4137 N.ar    1  UNL1       -0.2531
     22 C           1.0210   -0.7163    0.0858 C.ar    1  UNL1        0.0860
     23 C           5.1706    0.2966   -0.0867 C.ar    1  UNL1        0.1645
     24 N           5.5328    1.5257   -0.4725 N.ar    1  UNL1       -0.2159
     25 C           6.8465    1.7400   -0.4913 C.ar    1  UNL1        0.1200
     26 N           7.7882    0.8590   -0.1682 N.ar    1  UNL1       -0.2241
     27 C           7.3118   -0.3265    0.1990 C.ar    1  UNL1        0.1200
     28 N           6.0270   -0.6696    0.2608 N.ar    1  UNL1       -0.2159
     29 C          -2.6818   -0.9001    0.2074 C.ar    1  UNL1        0.0068
     30 H          -7.2598   -0.7762    0.7257 H       1  UNL1        0.0813
     31 H          -6.4875    1.6058    0.5783 H       1  UNL1        0.1648
     32 H          -4.0148    1.8986    0.4039 H       1  UNL1        0.0813
     33 H          -5.9107   -3.2646    0.7951 H       1  UNL1        0.0624
     34 H          -3.5676   -4.1840    0.8159 H       1  UNL1        0.0629
     35 H          -2.8862    2.1275   -1.4170 H       1  UNL1        0.1036
     36 H           1.0311    3.3277   -1.4582 H       1  UNL1        0.1036
     37 H           3.0410    1.9279   -0.7087 H       1  UNL1        0.0632
     38 H           3.9502   -2.0614    0.6260 H       1  UNL1        0.0837
     39 H           7.1798    2.7254   -0.7989 H       1  UNL1        0.1048
     40 H           8.0373   -1.0850    0.4738 H       1  UNL1        0.1048
@<TRIPOS>BOND
     1     1     2   ar
     2     2     3   ar
     3     3     4   ar
     4     4     5   ar
     5     5     6   ar
     6     6     7   ar
     7     7     8   ar
     8     8     9   ar
     9     9    10   ar
    10    10    11   ar
    11    11    12   ar
    12    12    13   ar
    13    13    14   ar
    14    14    15   ar
    15    15    16   ar
    16    16    17   ar
    17    17    18   ar
    18    18    19   ar
    19    19    20   ar
    20    20    21   ar
    21    21    22   ar
    22    19    23    1
    23    23    24   ar
    24    24    25   ar
    25    25    26   ar
    26    26    27   ar
    27    27    28   ar
    28    11    29   ar
    29     5     1   ar
    30    29     8   ar
    31    29     4   ar
    32    22    10   ar
    33    28    23   ar
    34    16    12   ar
    35    22    17   ar
    36     1    30    1
    37     2    31    1
    38     3    32    1
    39     6    33    1
    40     7    34    1
    41    13    35    1
    42    15    36    1
    43    18    37    1
    44    20    38    1
    45    25    39    1
    46    27    40    1
