@<TRIPOS>MOLECULE
*****
 20 23 0 0 0
SMALL
GASTEIGER

@<TRIPOS>ATOM
      1 C           1.4850    0.2030    0.1667 C.ar    1  UNL1        0.0476
      2 C           1.4095   -1.2310    0.3255 C.ar    1  UNL1        0.1793
      3 C          -0.1048   -1.5612    0.1700 C.ar    1  UNL1        0.1822
      4 N          -1.0130   -2.5005    0.1638 N.ar    1  UNL1       -0.2321
      5 C          -2.2154   -1.7900   -0.0740 C.ar    1  UNL1        0.0539
      6 C          -1.9958   -0.4256   -0.2061 C.ar    1  UNL1        0.0667
      7 N          -0.6596   -0.3467   -0.0439 N.ar    1  UNL1       -0.2896
      8 C           0.1939    0.7447   -0.0626 C.ar    1  UNL1        0.0595
      9 C          -0.3733    1.9387   -0.2757 C.ar    1  UNL1       -0.0370
     10 C          -1.8467    1.9541   -0.4665 C.ar    1  UNL1       -0.0578
     11 C          -2.6201    0.8326   -0.4340 C.ar    1  UNL1       -0.0362
     12 O           2.5516   -1.9139    0.5523 O.2     1  UNL1       -0.4592
     13 C           3.4366   -0.8543    0.5413 C.ar    1  UNL1        0.0934
     14 C           2.8549    0.4064    0.3186 C.ar    1  UNL1       -0.0140
     15 H          -3.1565   -2.3226   -0.1321 H       1  UNL1        0.0851
     16 H           0.1839    2.8664   -0.3132 H       1  UNL1        0.0638
     17 H          -2.3028    2.9258   -0.6392 H       1  UNL1        0.0619
     18 H          -3.6947    0.8851   -0.5781 H       1  UNL1        0.0639
     19 H           4.4651   -1.1488    0.7079 H       1  UNL1        0.1030
     20 H           3.4021    1.3379    0.2793 H       1  UNL1        0.0656
@<TRIPOS>BOND
     1     1     2   ar
     2     2     3   ar
     3     3     4   ar
     4     4     5   ar
     5     5     6   ar
     6     6     7   ar
     7     7     8   ar
     8     8     9   ar
     9     9    10   ar
    10    10    11   ar
    11     2    12   ar
    12    12    13   ar
    13    13    14   ar
    14    14     1   ar
    15     8     1   ar
    16     7     3   ar
    17    11     6   ar
    18     5    15    1
    19     9    16    1
    20    10    17    1
    21    11    18    1
    22    13    19    1
    23    14    20    1
