@<TRIPOS>MOLECULE
*****
 28 31 0 0 0
SMALL
GASTEIGER

@<TRIPOS>ATOM
      1 C           2.6060    0.0235   -0.2761 C.ar    1  UNL1        0.0287
      2 C           3.4041   -1.0896   -0.1179 C.ar    1  UNL1        0.0487
      3 N           4.6906   -0.6090   -0.2357 N.ar    1  UNL1       -0.3606
      4 C           4.6694    0.7543   -0.4586 C.ar    1  UNL1        0.0028
      5 C           3.3551    1.1788   -0.4883 C.ar    1  UNL1       -0.0345
      6 C           2.8868   -2.3716    0.1081 C.ar    1  UNL1       -0.0342
      7 C           1.4882   -2.5227    0.1753 C.ar    1  UNL1       -0.0152
      8 C           0.7152   -1.3765    0.0108 C.ar    1  UNL1        0.1564
      9 C           1.1958   -0.1080   -0.2118 C.ar    1  UNL1        0.1190
     10 N           0.2014    0.8097   -0.3321 N.ar    1  UNL1       -0.2083
     11 C          -0.8871    0.0700   -0.1777 C.ar    1  UNL1        0.2284
     12 C          -2.2878    0.4879   -0.2037 C.ar    1  UNL1        0.0369
     13 C          -3.3401   -0.4227   -0.0224 C.ar    1  UNL1       -0.0495
     14 C          -4.6701    0.0070   -0.0525 C.ar    1  UNL1       -0.0610
     15 C          -4.9647    1.3522   -0.2641 C.ar    1  UNL1       -0.0617
     16 C          -3.9321    2.2692   -0.4458 C.ar    1  UNL1       -0.0610
     17 C          -2.6030    1.8390   -0.4156 C.ar    1  UNL1       -0.0495
     18 O          -0.6485   -1.2727    0.0353 O.2     1  UNL1       -0.4353
     19 H           5.5269   -1.1729   -0.1687 H       1  UNL1        0.1653
     20 H           5.5955    1.3011   -0.5764 H       1  UNL1        0.0807
     21 H           3.0013    2.1894   -0.6433 H       1  UNL1        0.0639
     22 H           3.5392   -3.2314    0.2292 H       1  UNL1        0.0639
     23 H           1.0297   -3.4894    0.3477 H       1  UNL1        0.0656
     24 H          -3.1347   -1.4779    0.1444 H       1  UNL1        0.0625
     25 H          -5.4748   -0.7100    0.0895 H       1  UNL1        0.0618
     26 H          -5.9990    1.6860   -0.2874 H       1  UNL1        0.0618
     27 H          -4.1579    3.3195   -0.6113 H       1  UNL1        0.0618
     28 H          -1.8056    2.5669   -0.5592 H       1  UNL1        0.0625
@<TRIPOS>BOND
     1     1     2   ar
     2     2     3   ar
     3     3     4   ar
     4     4     5   ar
     5     2     6   ar
     6     6     7   ar
     7     7     8   ar
     8     8     9   ar
     9     9    10   ar
    10    10    11   ar
    11    11    12    1
    12    12    13   ar
    13    13    14   ar
    14    14    15   ar
    15    15    16   ar
    16    16    17   ar
    17    11    18   ar
    18     9     1   ar
    19     5     1   ar
    20    18     8   ar
    21    17    12   ar
    22     3    19    1
    23     4    20    1
    24     5    21    1
    25     6    22    1
    26     7    23    1
    27    13    24    1
    28    14    25    1
    29    15    26    1
    30    16    27    1
    31    17    28    1
