@<TRIPOS>MOLECULE
*****
 30 33 0 0 0
SMALL
GASTEIGER

@<TRIPOS>ATOM
      1 C           2.4493    0.1007    0.7046 C.ar    1  UNL1       -0.0173
      2 C           3.6736    0.2384    1.3794 C.ar    1  UNL1       -0.0540
      3 C           4.8825    0.0152    0.7185 C.ar    1  UNL1       -0.0612
      4 C           4.8831   -0.3482   -0.6245 C.ar    1  UNL1       -0.0612
      5 C           3.6747   -0.4890   -1.3087 C.ar    1  UNL1       -0.0540
      6 C           2.4498   -0.2678   -0.6574 C.ar    1  UNL1       -0.0173
      7 C           1.2253   -0.4054   -1.3319 C.ar    1  UNL1       -0.0463
      8 C           0.0003   -0.1840   -0.6800 C.ar    1  UNL1       -0.0167
      9 C          -0.0003    0.1840    0.6800 C.ar    1  UNL1       -0.0167
     10 C          -1.2253    0.4054    1.3319 C.ar    1  UNL1       -0.0463
     11 C          -2.4498    0.2678    0.6574 C.ar    1  UNL1       -0.0173
     12 C          -3.6747    0.4890    1.3087 C.ar    1  UNL1       -0.0540
     13 C          -4.8831    0.3483    0.6245 C.ar    1  UNL1       -0.0612
     14 C          -4.8825   -0.0152   -0.7185 C.ar    1  UNL1       -0.0612
     15 C          -3.6736   -0.2384   -1.3794 C.ar    1  UNL1       -0.0540
     16 C          -2.4493   -0.1007   -0.7046 C.ar    1  UNL1       -0.0173
     17 C          -1.2242   -0.3218   -1.3555 C.ar    1  UNL1       -0.0463
     18 C           1.2242    0.3218    1.3555 C.ar    1  UNL1       -0.0463
     19 H           3.6938    0.5217    2.4294 H       1  UNL1        0.0624
     20 H           5.8222    0.1254    1.2533 H       1  UNL1        0.0618
     21 H           5.8232   -0.5226   -1.1412 H       1  UNL1        0.0618
     22 H           3.6957   -0.7738   -2.3582 H       1  UNL1        0.0624
     23 H           1.2261   -0.6897   -2.3826 H       1  UNL1        0.0630
     24 H          -1.2261    0.6897    2.3826 H       1  UNL1        0.0630
     25 H          -3.6957    0.7738    2.3582 H       1  UNL1        0.0624
     26 H          -5.8232    0.5226    1.1412 H       1  UNL1        0.0618
     27 H          -5.8222   -0.1254   -1.2533 H       1  UNL1        0.0618
     28 H          -3.6938   -0.5218   -2.4294 H       1  UNL1        0.0624
     29 H          -1.2242   -0.6061   -2.4062 H       1  UNL1        0.0630
     30 H           1.2242    0.6061    2.4062 H       1  UNL1        0.0630
@<TRIPOS>BOND
     1     1     2   ar
     2     2     3   ar
     3     3     4   ar
     4     4     5   ar
     5     5     6   ar
     6     6     7   ar
     7     7     8   ar
     8     8     9   ar
     9     9    10   ar
    10    10    11   ar
    11    11    12   ar
    12    12    13   ar
    13    13    14   ar
    14    14    15   ar
    15    11    16   ar
    16    16    17   ar
    17     9    18   ar
    18     6     1   ar
    19    18     1   ar
    20    17     8   ar
    21    16    15   ar
    22     2    19    1
    23     3    20    1
    24     4    21    1
    25     5    22    1
    26     7    23    1
    27    10    24    1
    28    12    25    1
    29    13    26    1
    30    14    27    1
    31    15    28    1
    32    17    29    1
    33    18    30    1
