@<TRIPOS>MOLECULE
*****
 43 49 0 0 0
SMALL
GASTEIGER

@<TRIPOS>ATOM
      1 SI         -1.8165    1.2504   -0.3738 Si      1  UNL1        0.0000
      2 C          -3.2785    0.3983    0.4620 C.2     1  UNL1        0.0000
      3 C          -2.8850   -0.7042    1.1320 C.2     1  UNL1        0.0000
      4 C          -1.4594   -0.9968    1.0582 C.2     1  UNL1        0.0000
      5 C          -0.7335   -0.1197    0.3359 C.2     1  UNL1        0.0000
      6 C           0.6513   -0.2124    0.1094 C.ar    1  UNL1        0.0000
      7 S           1.7916    0.9646    0.6452 S.2     1  UNL1        0.0000
      8 C           3.1484    0.1065    0.0088 C.ar    1  UNL1        0.0000
      9 C           4.4927    0.6393    0.1664 C.ar    1  UNL1        0.0000
     10 C           4.8643    1.9365   -0.2560 C.ar    1  UNL1        0.0000
     11 C           6.1706    2.4598   -0.1087 C.ar    1  UNL1        0.0000
     12 C           7.2237    1.7361    0.4738 C.ar    1  UNL1        0.0000
     13 C           6.9148    0.4286    0.9199 C.ar    1  UNL1        0.0000
     14 N           7.7778   -0.4183    1.5014 N.ar    1  UNL1        0.0000
     15 S           6.9232   -1.7985    1.8432 S.2     1  UNL1        0.0000
     16 N           5.4269   -1.3924    1.2574 N.ar    1  UNL1        0.0000
     17 C           5.5214   -0.1425    0.7677 C.ar    1  UNL1        0.0000
     18 C           2.6755   -1.0202   -0.5810 C.ar    1  UNL1        0.0000
     19 C           3.2875   -2.0931   -1.2828 C.ar    1  UNL1        0.0000
     20 C           2.3646   -3.0439   -1.7307 C.ar    1  UNL1        0.0000
     21 S           0.6783   -2.7282   -1.3573 S.2     1  UNL1        0.0000
     22 C           1.2949   -1.2294   -0.5475 C.ar    1  UNL1        0.0000
     23 C          -4.6024    0.8645    0.3803 C.ar    1  UNL1        0.0000
     24 S          -5.1189    2.4579    0.8518 S.2     1  UNL1        0.0000
     25 C          -6.7866    2.1580    0.4644 C.ar    1  UNL1        0.0000
     26 C          -6.8746    0.8960   -0.0001 C.ar    1  UNL1        0.0000
     27 C          -7.8213   -0.0316   -0.4981 C.ar    1  UNL1        0.0000
     28 C          -7.1167   -1.2149   -0.8070 C.ar    1  UNL1        0.0000
     29 N          -5.7567   -1.0906   -0.5296 N.ar    1  UNL1        0.0000
     30 C          -5.6942    0.1880   -0.0492 C.ar    1  UNL1        0.0000
     31 H          -1.8946    1.1932   -1.8574 H       1  UNL1        0.0000
     32 H          -1.5045    2.5834    0.2058 H       1  UNL1        0.0000
     33 H          -3.5461   -1.3454    1.7034 H       1  UNL1        0.0000
     34 H          -1.0495   -1.8658    1.5602 H       1  UNL1        0.0000
     35 H           4.1139    2.5733   -0.7275 H       1  UNL1        0.0000
     36 H           6.3683    3.4717   -0.4646 H       1  UNL1        0.0000
     37 H           8.2195    2.1496    0.5809 H       1  UNL1        0.0000
     38 H           4.3517   -2.1926   -1.4592 H       1  UNL1        0.0000
     39 H           2.5860   -3.9483   -2.2809 H       1  UNL1        0.0000
     40 H          -7.5460    2.9135    0.6023 H       1  UNL1        0.0000
     41 H          -8.8850    0.1149   -0.6302 H       1  UNL1        0.0000
     42 H          -7.4841   -2.1493   -1.2117 H       1  UNL1        0.0000
     43 H          -4.9927   -1.7456   -0.6453 H       1  UNL1        0.0000
@<TRIPOS>BOND
     1     1     2    1
     2     2     3    2
     3     3     4    1
     4     4     5    2
     5     5     6    1
     6     6     7   ar
     7     7     8   ar
     8     8     9    1
     9     9    10   ar
    10    10    11   ar
    11    11    12   ar
    12    12    13   ar
    13    13    14   ar
    14    14    15   ar
    15    15    16   ar
    16    16    17   ar
    17     8    18   ar
    18    18    19   ar
    19    19    20   ar
    20    20    21   ar
    21    21    22   ar
    22     2    23    1
    23    23    24   ar
    24    24    25   ar
    25    25    26   ar
    26    26    27   ar
    27    27    28   ar
    28    28    29   ar
    29    29    30   ar
    30     5     1    1
    31    22     6   ar
    32    30    23   ar
    33    17     9   ar
    34    22    18   ar
    35    30    26   ar
    36    17    13   ar
    37     1    31    1
    38     1    32    1
    39     3    33    1
    40     4    34    1
    41    10    35    1
    42    11    36    1
    43    12    37    1
    44    19    38    1
    45    20    39    1
    46    25    40    1
    47    27    41    1
    48    28    42    1
    49    29    43    1
