@<TRIPOS>MOLECULE
*****
 24 26 0 0 0
SMALL
GASTEIGER

@<TRIPOS>ATOM
      1 C           1.1467   -0.8162   -0.0881 C.ar    1  UNL1       -0.0173
      2 C           2.2955   -1.6135   -0.2227 C.ar    1  UNL1       -0.0540
      3 C           3.5489   -1.0328   -0.4220 C.ar    1  UNL1       -0.0612
      4 C           3.6701    0.3516   -0.4895 C.ar    1  UNL1       -0.0612
      5 C           2.5382    1.1575   -0.3576 C.ar    1  UNL1       -0.0540
      6 C           1.2697    0.5882   -0.1565 C.ar    1  UNL1       -0.0173
      7 C           0.1214    1.3862   -0.0220 C.ar    1  UNL1       -0.0463
      8 C          -1.1467    0.8162    0.1791 C.ar    1  UNL1       -0.0173
      9 C          -2.2955    1.6135    0.3136 C.ar    1  UNL1       -0.0540
     10 C          -3.5489    1.0328    0.5130 C.ar    1  UNL1       -0.0612
     11 C          -3.6701   -0.3516    0.5804 C.ar    1  UNL1       -0.0612
     12 C          -2.5382   -1.1575    0.4486 C.ar    1  UNL1       -0.0540
     13 C          -1.2697   -0.5882    0.2475 C.ar    1  UNL1       -0.0173
     14 C          -0.1214   -1.3862    0.1130 C.ar    1  UNL1       -0.0463
     15 H           2.2210   -2.6975   -0.1728 H       1  UNL1        0.0624
     16 H           4.4289   -1.6622   -0.5244 H       1  UNL1        0.0618
     17 H           4.6451    0.8061   -0.6446 H       1  UNL1        0.0618
     18 H           2.6533    2.2376   -0.4131 H       1  UNL1        0.0624
     19 H           0.2163    2.4692   -0.0748 H       1  UNL1        0.0630
     20 H          -2.2210    2.6975    0.2637 H       1  UNL1        0.0624
     21 H          -4.4289    1.6622    0.6154 H       1  UNL1        0.0618
     22 H          -4.6451   -0.8061    0.7356 H       1  UNL1        0.0618
     23 H          -2.6533   -2.2376    0.5041 H       1  UNL1        0.0624
     24 H          -0.2163   -2.4692    0.1657 H       1  UNL1        0.0630
@<TRIPOS>BOND
     1     1     2   ar
     2     2     3   ar
     3     3     4   ar
     4     4     5   ar
     5     5     6   ar
     6     6     7   ar
     7     7     8   ar
     8     8     9   ar
     9     9    10   ar
    10    10    11   ar
    11    11    12   ar
    12    12    13   ar
    13    13    14   ar
    14     6     1   ar
    15    14     1   ar
    16    13     8   ar
    17     2    15    1
    18     3    16    1
    19     4    17    1
    20     5    18    1
    21     7    19    1
    22     9    20    1
    23    10    21    1
    24    11    22    1
    25    12    23    1
    26    14    24    1
