@<TRIPOS>MOLECULE
*****
 40 44 0 0 0
SMALL
GASTEIGER

@<TRIPOS>ATOM
      1 C          -3.2590   -0.5070    0.0232 C.ar    1  UNL1        0.0000
      2 C          -3.7084   -1.7770    0.2131 C.ar    1  UNL1        0.0000
      3 C          -5.0704   -2.0168    0.3007 C.ar    1  UNL1        0.0000
      4 C          -6.0101   -1.0122    0.2030 C.ar    1  UNL1        0.0000
      5 C          -5.5657    0.2594    0.0131 C.ar    1  UNL1        0.0000
      6 C          -4.1989    0.5012   -0.0750 C.ar    1  UNL1        0.0000
      7 C          -3.8122    1.7937   -0.2651 C.ar    1  UNL1        0.0000
      8 C          -2.4472    2.0730   -0.3578 C.ar    1  UNL1        0.0000
      9 C          -1.5097    1.0676   -0.2599 C.ar    1  UNL1        0.0000
     10 C          -1.8935   -0.2552   -0.0659 C.ar    1  UNL1        0.0000
     11 C          -0.9163   -1.3421    0.0421 C.ar    1  UNL1        0.0000
     12 C           0.3877   -1.1380   -0.0392 C.ar    1  UNL1        0.0000
     13 B           0.8860    0.2989   -0.2578 B       1  UNL1        0.0000
     14 C           2.3861    0.6470   -0.2781 C.ar    1  UNL1        0.0000
     15 C           3.4750   -0.2804   -0.1402 C.ar    1  UNL1        0.0000
     16 C           4.6679    0.2275    0.3968 C.ar    1  UNL1        0.0000
     17 C           5.8150   -0.5309    0.4922 C.ar    1  UNL1        0.0000
     18 C           5.8591   -1.8393    0.0644 C.ar    1  UNL1        0.0000
     19 C           4.7005   -2.3552   -0.4657 C.ar    1  UNL1        0.0000
     20 C           3.5310   -1.5784   -0.5633 C.ar    1  UNL1        0.0000
     21 C           2.6709    1.9645   -0.3882 C.ar    1  UNL1        0.0000
     22 C           1.6288    2.9746   -0.4845 C.ar    1  UNL1        0.0000
     23 C           0.3431    2.7380   -0.4753 C.ar    1  UNL1        0.0000
     24 N          -0.1377    1.4122   -0.3627 N.ar    1  UNL1        0.0000
     25 H          -3.0782   -2.6472    0.3053 H       1  UNL1        0.0000
     26 H          -5.4423   -3.0394    0.4540 H       1  UNL1        0.0000
     27 H          -7.0679   -1.2779    0.2818 H       1  UNL1        0.0000
     28 H          -6.2844    1.0584   -0.0658 H       1  UNL1        0.0000
     29 H          -4.5442    2.5834   -0.3421 H       1  UNL1        0.0000
     30 H          -2.2076    3.1148   -0.5087 H       1  UNL1        0.0000
     31 H          -1.2120   -2.3808    0.1957 H       1  UNL1        0.0000
     32 H           1.0440   -1.9634    0.0880 H       1  UNL1        0.0000
     33 H           4.7448    1.2382    0.7759 H       1  UNL1        0.0000
     34 H           6.7292   -0.1057    0.9155 H       1  UNL1        0.0000
     35 H           6.7834   -2.3852    0.1644 H       1  UNL1        0.0000
     36 H           4.7106   -3.3793   -0.8079 H       1  UNL1        0.0000
     37 H           2.7211   -2.0636   -1.0397 H       1  UNL1        0.0000
     38 H           3.6888    2.3257   -0.4219 H       1  UNL1        0.0000
     39 H           1.9320    4.0312   -0.5729 H       1  UNL1        0.0000
     40 H          -0.3394    3.5656   -0.5543 H       1  UNL1        0.0000
@<TRIPOS>BOND
     1     1     2   ar
     2     2     3   ar
     3     3     4   ar
     4     4     5   ar
     5     5     6   ar
     6     6     7   ar
     7     7     8   ar
     8     8     9   ar
     9     9    10   ar
    10    10    11   ar
    11    11    12   ar
    12    12    13   ar
    13    13    14   ar
    14    14    15    1
    15    15    16   ar
    16    16    17   ar
    17    17    18   ar
    18    18    19   ar
    19    19    20   ar
    20    14    21   ar
    21    21    22   ar
    22    22    23   ar
    23    23    24   ar
    24     6     1   ar
    25    10     1   ar
    26    24     9   ar
    27    24    13   ar
    28    20    15   ar
    29     2    25    1
    30     3    26    1
    31     4    27    1
    32     5    28    1
    33     7    29    1
    34     8    30    1
    35    11    31    1
    36    12    32    1
    37    16    33    1
    38    17    34    1
    39    18    35    1
    40    19    36    1
    41    20    37    1
    42    21    38    1
    43    22    39    1
    44    23    40    1
