@<TRIPOS>MOLECULE
*****
 43 47 0 0 0
SMALL
GASTEIGER

@<TRIPOS>ATOM
      1 C           3.4084   -0.5068   -0.0407 C.ar    1  UNL1        0.0000
      2 C           3.8496   -1.7792    0.2516 C.ar    1  UNL1        0.0000
      3 C           5.2117   -2.0986    0.3032 C.ar    1  UNL1        0.0000
      4 C           6.1605   -1.1305    0.0583 C.ar    1  UNL1        0.0000
      5 C           5.7412    0.1443   -0.2349 C.ar    1  UNL1        0.0000
      6 C           4.3902    0.4407   -0.2812 C.ar    1  UNL1        0.0000
      7 C           4.0332    1.7187   -0.5763 C.ar    1  UNL1        0.0000
      8 C           2.6745    2.0648   -0.6341 C.ar    1  UNL1        0.0000
      9 C           1.7077    1.1147   -0.3933 C.ar    1  UNL1        0.0000
     10 C           2.0555   -0.2041   -0.0884 C.ar    1  UNL1        0.0000
     11 C           1.0630   -1.2333    0.1716 C.ar    1  UNL1        0.0000
     12 C          -0.2588   -0.9795    0.1349 C.ar    1  UNL1        0.0000
     13 B          -0.7092    0.4568   -0.1959 B       1  UNL1        0.0000
     14 C          -2.1895    0.9098   -0.2768 C.ar    1  UNL1        0.0000
     15 N          -3.1942   -0.0459   -0.0339 N.pl3   1  UNL1        0.0000
     16 C          -4.0591   -0.4887   -1.1282 C.3     1  UNL1        0.0000
     17 C          -5.3770   -0.8969   -0.5071 C.3     1  UNL1        0.0000
     18 O          -5.2541   -1.9595    0.3570 O.3     1  UNL1        0.0000
     19 C          -4.0082   -2.0306    0.9692 C.3     1  UNL1        0.0000
     20 C          -3.4492   -0.6483    1.2623 C.3     1  UNL1        0.0000
     21 C          -2.4182    2.1805   -0.5724 C.ar    1  UNL1        0.0000
     22 C          -1.3683    3.1530   -0.8201 C.ar    1  UNL1        0.0000
     23 C          -0.0797    2.8136   -0.7626 C.ar    1  UNL1        0.0000
     24 N           0.3622    1.5019   -0.4610 N.ar    1  UNL1        0.0000
     25 H           3.1845   -2.5963    0.4559 H       1  UNL1        0.0000
     26 H           5.5568   -3.0976    0.5327 H       1  UNL1        0.0000
     27 H           7.2102   -1.3895    0.1011 H       1  UNL1        0.0000
     28 H           6.5123    0.8817   -0.4222 H       1  UNL1        0.0000
     29 H           4.8004    2.4702   -0.7669 H       1  UNL1        0.0000
     30 H           2.4838    3.0908   -0.8727 H       1  UNL1        0.0000
     31 H           1.3057   -2.2577    0.4089 H       1  UNL1        0.0000
     32 H          -0.9967   -1.7432    0.3278 H       1  UNL1        0.0000
     33 H          -4.2823    0.3351   -1.8444 H       1  UNL1        0.0000
     34 H          -3.5981   -1.3763   -1.6268 H       1  UNL1        0.0000
     35 H          -5.7716   -0.0457    0.0836 H       1  UNL1        0.0000
     36 H          -6.0910   -1.1382   -1.3067 H       1  UNL1        0.0000
     37 H          -4.0579   -2.6152    1.8921 H       1  UNL1        0.0000
     38 H          -3.3099   -2.4989    0.2172 H       1  UNL1        0.0000
     39 H          -2.5531   -0.7659    1.8731 H       1  UNL1        0.0000
     40 H          -4.1847   -0.0154    1.7889 H       1  UNL1        0.0000
     41 H          -3.4520    2.4937   -0.6282 H       1  UNL1        0.0000
     42 H          -1.6708    4.1693   -1.0544 H       1  UNL1        0.0000
     43 H           0.6220    3.6022   -0.9608 H       1  UNL1        0.0000
@<TRIPOS>BOND
     1     1     2   ar
     2     2     3   ar
     3     3     4   ar
     4     4     5   ar
     5     5     6   ar
     6     6     7   ar
     7     7     8   ar
     8     8     9   ar
     9     9    10   ar
    10    10    11   ar
    11    11    12   ar
    12    12    13   ar
    13    13    14   ar
    14    14    15    1
    15    15    16    1
    16    16    17    1
    17    17    18    1
    18    18    19    1
    19    19    20    1
    20    14    21   ar
    21    21    22   ar
    22    22    23   ar
    23    23    24   ar
    24     6     1   ar
    25    10     1   ar
    26    24     9   ar
    27    24    13   ar
    28    20    15    1
    29     2    25    1
    30     3    26    1
    31     4    27    1
    32     5    28    1
    33     7    29    1
    34     8    30    1
    35    11    31    1
    36    12    32    1
    37    16    33    1
    38    16    34    1
    39    17    35    1
    40    17    36    1
    41    19    37    1
    42    19    38    1
    43    20    39    1
    44    20    40    1
    45    21    41    1
    46    22    42    1
    47    23    43    1
