@<TRIPOS>MOLECULE
*****
 30 33 0 0 0
SMALL
GASTEIGER

@<TRIPOS>ATOM
      1 C           1.8111    0.2265   -0.3264 C.ar    1  UNL1        0.0000
      2 C           2.7695    1.1201   -0.7573 C.ar    1  UNL1        0.0000
      3 C           4.1384    0.8450   -0.6500 C.ar    1  UNL1        0.0000
      4 C           4.5674   -0.3339   -0.1073 C.ar    1  UNL1        0.0000
      5 C           3.6408   -1.2328    0.3256 C.ar    1  UNL1        0.0000
      6 C           2.2927   -0.9584    0.2183 C.ar    1  UNL1        0.0000
      7 C           1.4229   -1.9196    0.6793 C.ar    1  UNL1        0.0000
      8 C           0.0531   -1.6664    0.5822 C.ar    1  UNL1        0.0000
      9 C          -0.4118   -0.4685    0.0312 C.ar    1  UNL1        0.0000
     10 C           0.4640    0.5022   -0.4343 C.ar    1  UNL1        0.0000
     11 C           0.0162    1.7613   -1.0141 C.ar    1  UNL1        0.0000
     12 C          -1.2849    2.0694   -1.1378 C.ar    1  UNL1        0.0000
     13 B          -2.3339    1.0429   -0.6436 B       1  UNL1        0.0000
     14 C          -3.8735    1.2426   -0.7132 C.ar    1  UNL1        0.0000
     15 C          -4.6275    0.2620   -0.2449 C.ar    1  UNL1        0.0000
     16 C          -4.0885   -0.9631    0.3177 C.ar    1  UNL1        0.0000
     17 C          -2.7679   -1.1891    0.4028 C.ar    1  UNL1        0.0000
     18 N          -1.8152   -0.2518   -0.0483 N.ar    1  UNL1        0.0000
     19 H           2.5301    2.0708   -1.1965 H       1  UNL1        0.0000
     20 H           4.8742    1.5771   -1.0022 H       1  UNL1        0.0000
     21 H           5.6310   -0.5140   -0.0396 H       1  UNL1        0.0000
     22 H           3.9943   -2.1807    0.7618 H       1  UNL1        0.0000
     23 H           1.7803   -2.8363    1.1010 H       1  UNL1        0.0000
     24 H          -0.5853   -2.4341    0.9496 H       1  UNL1        0.0000
     25 H           0.6857    2.5284   -1.3817 H       1  UNL1        0.0000
     26 H          -1.6344    2.9861   -1.5595 H       1  UNL1        0.0000
     27 H          -4.2557    2.1594   -1.1345 H       1  UNL1        0.0000
     28 H          -5.6946    0.3948   -0.2905 H       1  UNL1        0.0000
     29 H          -4.8098   -1.7123    0.6777 H       1  UNL1        0.0000
     30 H          -2.4885   -2.1276    0.8358 H       1  UNL1        0.0000
@<TRIPOS>BOND
     1     1     2   ar
     2     2     3   ar
     3     3     4   ar
     4     4     5   ar
     5     5     6   ar
     6     6     7   ar
     7     7     8   ar
     8     8     9   ar
     9     9    10   ar
    10    10    11   ar
    11    11    12   ar
    12    12    13   ar
    13    13    14   ar
    14    14    15   ar
    15    15    16   ar
    16    16    17   ar
    17    17    18   ar
    18     6     1   ar
    19    10     1   ar
    20    18     9   ar
    21    18    13   ar
    22     2    19    1
    23     3    20    1
    24     4    21    1
    25     5    22    1
    26     7    23    1
    27     8    24    1
    28    11    25    1
    29    12    26    1
    30    14    27    1
    31    15    28    1
    32    16    29    1
    33    17    30    1
