@<TRIPOS>MOLECULE
*****
 34 38 0 0 0
SMALL
GASTEIGER

@<TRIPOS>ATOM
      1 C           2.4096    0.1345    0.5776 C.ar    1  UNL1        0.0000
      2 C           3.5111    0.4020    1.3569 C.ar    1  UNL1        0.0000
      3 C           4.8064    0.1942    0.8644 C.ar    1  UNL1        0.0000
      4 C           5.0263   -0.2752   -0.3895 C.ar    1  UNL1        0.0000
      5 C           3.9339   -0.5492   -1.1857 C.ar    1  UNL1        0.0000
      6 C           2.6480   -0.3426   -0.6962 C.ar    1  UNL1        0.0000
      7 N           1.5891   -0.6605   -1.6089 N.ar    1  UNL1        0.0000
      8 B           0.1617   -0.4582   -1.1384 B       1  UNL1        0.0000
      9 C          -0.0366    0.0845    0.3144 C.ar    1  UNL1        0.0000
     10 C           1.0723    0.3495    1.0873 C.ar    1  UNL1        0.0000
     11 C           0.8724    0.8267    2.3636 C.ar    1  UNL1        0.0000
     12 C          -0.4191    1.0287    2.8402 C.ar    1  UNL1        0.0000
     13 C          -1.5142    0.7442    2.0157 C.ar    1  UNL1        0.0000
     14 C          -1.3318    0.2659    0.7358 C.ar    1  UNL1        0.0000
     15 C          -2.4782   -0.0256   -0.1105 C.ar    1  UNL1        0.0000
     16 C          -3.7785    0.1708    0.3510 C.ar    1  UNL1        0.0000
     17 C          -4.8736   -0.1110   -0.4665 C.ar    1  UNL1        0.0000
     18 C          -4.7178   -0.5896   -1.7487 C.ar    1  UNL1        0.0000
     19 C          -3.4339   -0.7860   -2.2109 C.ar    1  UNL1        0.0000
     20 C          -2.3306   -0.5072   -1.4012 C.ar    1  UNL1        0.0000
     21 N          -1.0594   -0.7517   -1.9938 N.ar    1  UNL1        0.0000
     22 H           3.4690    0.7774    2.3669 H       1  UNL1        0.0000
     23 H           5.6795    0.4109    1.4947 H       1  UNL1        0.0000
     24 H           6.0389   -0.4245   -0.7390 H       1  UNL1        0.0000
     25 H           4.1275   -0.9227   -2.1826 H       1  UNL1        0.0000
     26 H           1.7466   -1.0146   -2.5554 H       1  UNL1        0.0000
     27 H           1.6642    1.0676    3.0547 H       1  UNL1        0.0000
     28 H          -0.5840    1.4101    3.8601 H       1  UNL1        0.0000
     29 H          -2.4769    0.9290    2.4636 H       1  UNL1        0.0000
     30 H          -4.0044    0.5358    1.3231 H       1  UNL1        0.0000
     31 H          -5.8862    0.0416   -0.1082 H       1  UNL1        0.0000
     32 H          -5.5978   -0.7932   -2.3437 H       1  UNL1        0.0000
     33 H          -3.3046   -1.1656   -3.2276 H       1  UNL1        0.0000
     34 H          -0.9288   -1.1138   -2.9631 H       1  UNL1        0.0000
@<TRIPOS>BOND
     1     1     2   ar
     2     2     3   ar
     3     3     4   ar
     4     4     5   ar
     5     5     6   ar
     6     6     7   ar
     7     7     8   ar
     8     8     9   ar
     9     9    10   ar
    10    10    11   ar
    11    11    12   ar
    12    12    13   ar
    13    13    14   ar
    14    14    15   ar
    15    15    16   ar
    16    16    17   ar
    17    17    18   ar
    18    18    19   ar
    19    15    20   ar
    20    20    21   ar
    21     6     1   ar
    22    10     1   ar
    23    21     8   ar
    24    14     9   ar
    25    20    19   ar
    26     2    22    1
    27     3    23    1
    28     4    24    1
    29     5    25    1
    30     7    26    1
    31    11    27    1
    32    12    28    1
    33    13    29    1
    34    16    30    1
    35    17    31    1
    36    18    32    1
    37    19    33    1
    38    21    34    1
