@<TRIPOS>MOLECULE
*****
 35 39 0 0 0
SMALL
GASTEIGER

@<TRIPOS>ATOM
      1 C           1.0180   -1.6501   -0.2625 C.ar    1  UNL1       -0.0161
      2 C           1.6901   -2.8666   -0.4553 C.ar    1  UNL1       -0.0540
      3 C           3.0826   -2.9137   -0.4749 C.ar    1  UNL1       -0.0606
      4 C           3.8209   -1.7448   -0.3020 C.ar    1  UNL1       -0.0540
      5 C           3.1755   -0.5149   -0.1074 C.ar    1  UNL1       -0.0167
      6 C           1.7607   -0.4633   -0.0868 C.ar    1  UNL1       -0.0024
      7 C           1.0917    0.7722    0.1089 C.ar    1  UNL1       -0.0019
      8 C          -0.3267    0.8258    0.1298 C.ar    1  UNL1       -0.0090
      9 C          -1.0650   -0.3762   -0.0483 C.ar    1  UNL1       -0.0095
     10 C          -2.5355   -0.4080   -0.0401 C.ar    1  UNL1       -0.0144
     11 C          -3.2411   -0.6099    1.1500 C.ar    1  UNL1       -0.0359
     12 C          -4.6254   -0.6339    1.1062 C.ar    1  UNL1        0.0281
     13 N          -5.3438   -0.4749   -0.0254 N.ar    1  UNL1       -0.2632
     14 C          -4.6456   -0.2848   -1.1649 C.ar    1  UNL1        0.0281
     15 C          -3.2622   -0.2451   -1.2234 C.ar    1  UNL1       -0.0359
     16 C          -0.3797   -1.5902   -0.2408 C.ar    1  UNL1       -0.0457
     17 C          -0.9350    2.0861    0.3288 C.ar    1  UNL1       -0.0534
     18 C          -0.1794    3.2454    0.5001 C.ar    1  UNL1       -0.0606
     19 C           1.2089    3.1783    0.4774 C.ar    1  UNL1       -0.0540
     20 C           1.8573    1.9531    0.2834 C.ar    1  UNL1       -0.0167
     21 C           3.2561    1.8833    0.2603 C.ar    1  UNL1       -0.0534
     22 C           3.9075    0.6646    0.0673 C.ar    1  UNL1       -0.0534
     23 H           1.1313   -3.7900   -0.5922 H       1  UNL1        0.0624
     24 H           3.5926   -3.8617   -0.6251 H       1  UNL1        0.0618
     25 H           4.9071   -1.8010   -0.3203 H       1  UNL1        0.0624
     26 H          -2.7228   -0.7427    2.0941 H       1  UNL1        0.0639
     27 H          -5.2104   -0.7862    2.0087 H       1  UNL1        0.0830
     28 H          -5.2466   -0.1606   -2.0611 H       1  UNL1        0.0830
     29 H          -2.7607   -0.0869   -2.1727 H       1  UNL1        0.0639
     30 H          -0.9570   -2.5045   -0.3761 H       1  UNL1        0.0630
     31 H          -2.0191    2.1801    0.3529 H       1  UNL1        0.0624
     32 H          -0.6768    4.2000    0.6512 H       1  UNL1        0.0618
     33 H           1.7821    4.0928    0.6128 H       1  UNL1        0.0624
     34 H           3.8554    2.7815    0.3929 H       1  UNL1        0.0624
     35 H           4.9950    0.6468    0.0549 H       1  UNL1        0.0624
@<TRIPOS>BOND
     1     1     2   ar
     2     2     3   ar
     3     3     4   ar
     4     4     5   ar
     5     5     6   ar
     6     6     7   ar
     7     7     8   ar
     8     8     9   ar
     9     9    10    1
    10    10    11   ar
    11    11    12   ar
    12    12    13   ar
    13    13    14   ar
    14    14    15   ar
    15     9    16   ar
    16     8    17   ar
    17    17    18   ar
    18    18    19   ar
    19     7    20   ar
    20    20    21   ar
    21    21    22   ar
    22     6     1   ar
    23    16     1   ar
    24    22     5   ar
    25    15    10   ar
    26    20    19   ar
    27     2    23    1
    28     3    24    1
    29     4    25    1
    30    11    26    1
    31    12    27    1
    32    14    28    1
    33    15    29    1
    34    16    30    1
    35    17    31    1
    36    18    32    1
    37    19    33    1
    38    21    34    1
    39    22    35    1
