@<TRIPOS>MOLECULE
*****
 35 39 0 0 0
SMALL
GASTEIGER

@<TRIPOS>ATOM
      1 C          -3.0988    1.2870   -0.1517 C.ar    1  UNL1       -0.0167
      2 C          -4.5014    1.2992   -0.1677 C.ar    1  UNL1       -0.0540
      3 C          -5.2226    0.1064   -0.1259 C.ar    1  UNL1       -0.0606
      4 C          -4.5517   -1.1147   -0.0675 C.ar    1  UNL1       -0.0540
      5 C          -3.1499   -1.1596   -0.0500 C.ar    1  UNL1       -0.0167
      6 C          -2.4176    0.0493   -0.0924 C.ar    1  UNL1       -0.0025
      7 C          -1.0008    0.0204   -0.0755 C.ar    1  UNL1       -0.0024
      8 C          -0.2686    1.2270   -0.1193 C.ar    1  UNL1       -0.0161
      9 C          -0.9599    2.4450   -0.1769 C.ar    1  UNL1       -0.0534
     10 C          -2.3568    2.4748   -0.1931 C.ar    1  UNL1       -0.0534
     11 C           1.1352    1.1811   -0.1027 C.ar    1  UNL1       -0.0462
     12 C           1.8305   -0.0373   -0.0417 C.ar    1  UNL1       -0.0166
     13 C           3.3008   -0.0673   -0.0241 C.ar    1  UNL1       -0.0150
     14 C           3.9992   -0.7027    1.0090 C.ar    1  UNL1       -0.0359
     15 C           5.3852   -0.7031    0.9830 C.ar    1  UNL1        0.0281
     16 N           6.1181   -0.1247    0.0095 N.ar    1  UNL1       -0.2632
     17 C           5.4328    0.4826   -0.9809 C.ar    1  UNL1        0.0281
     18 C           4.0489    0.5387   -1.0399 C.ar    1  UNL1       -0.0359
     19 C           1.0849   -1.2263    0.0022 C.ar    1  UNL1       -0.0462
     20 C          -0.3196   -1.2150   -0.0148 C.ar    1  UNL1       -0.0161
     21 C          -1.0612   -2.4038    0.0257 C.ar    1  UNL1       -0.0534
     22 C          -2.4580   -2.3766    0.0085 C.ar    1  UNL1       -0.0534
     23 H          -5.0437    2.2409   -0.2130 H       1  UNL1        0.0624
     24 H          -6.3092    0.1286   -0.1389 H       1  UNL1        0.0618
     25 H          -5.1329   -2.0336   -0.0357 H       1  UNL1        0.0624
     26 H          -0.4157    3.3864   -0.2096 H       1  UNL1        0.0624
     27 H          -2.8610    3.4376   -0.2382 H       1  UNL1        0.0624
     28 H           1.6988    2.1128   -0.1252 H       1  UNL1        0.0630
     29 H           3.4763   -1.1811    1.8310 H       1  UNL1        0.0639
     30 H           5.9584   -1.1827    1.7712 H       1  UNL1        0.0830
     31 H           6.0437    0.9381   -1.7550 H       1  UNL1        0.0830
     32 H           3.5658    1.0376   -1.8739 H       1  UNL1        0.0639
     33 H           1.6094   -2.1802    0.0376 H       1  UNL1        0.0630
     34 H          -0.5567   -3.3666    0.0709 H       1  UNL1        0.0624
     35 H          -3.0020   -3.3181    0.0411 H       1  UNL1        0.0624
@<TRIPOS>BOND
     1     1     2   ar
     2     2     3   ar
     3     3     4   ar
     4     4     5   ar
     5     5     6   ar
     6     6     7   ar
     7     7     8   ar
     8     8     9   ar
     9     9    10   ar
    10     8    11   ar
    11    11    12   ar
    12    12    13    1
    13    13    14   ar
    14    14    15   ar
    15    15    16   ar
    16    16    17   ar
    17    17    18   ar
    18    12    19   ar
    19     7    20   ar
    20    20    21   ar
    21    21    22   ar
    22     6     1   ar
    23    10     1   ar
    24    22     5   ar
    25    18    13   ar
    26    20    19   ar
    27     2    23    1
    28     3    24    1
    29     4    25    1
    30     9    26    1
    31    10    27    1
    32    11    28    1
    33    14    29    1
    34    15    30    1
    35    17    31    1
    36    18    32    1
    37    19    33    1
    38    21    34    1
    39    22    35    1
