@<TRIPOS>MOLECULE
*****
 35 39 0 0 0
SMALL
GASTEIGER

@<TRIPOS>ATOM
      1 C          -3.3040    0.9701   -0.3175 C.ar    1  UNL1       -0.0167
      2 C          -4.7013    0.8525   -0.3574 C.ar    1  UNL1       -0.0540
      3 C          -5.3141   -0.3902   -0.2000 C.ar    1  UNL1       -0.0606
      4 C          -4.5387   -1.5319   -0.0005 C.ar    1  UNL1       -0.0540
      5 C          -3.1393   -1.4462    0.0442 C.ar    1  UNL1       -0.0167
      6 C          -2.5171   -0.1866   -0.1154 C.ar    1  UNL1       -0.0025
      7 C          -1.1039   -0.0835   -0.0727 C.ar    1  UNL1       -0.0024
      8 C          -0.4785    1.1697   -0.2312 C.ar    1  UNL1       -0.0161
      9 C          -1.2752    2.3069   -0.4308 C.ar    1  UNL1       -0.0534
     10 C          -2.6687    2.2089   -0.4735 C.ar    1  UNL1       -0.0534
     11 C           0.9274    1.2532   -0.1859 C.ar    1  UNL1       -0.0448
     12 C           1.7454    0.1241    0.0135 C.ar    1  UNL1        0.0015
     13 C           3.2327    0.1949    0.0639 C.ar    1  UNL1        0.0710
     14 N           3.8689   -0.9911    0.2642 N.ar    1  UNL1       -0.2550
     15 C           5.2192   -1.0027    0.3212 C.ar    1  UNL1        0.0283
     16 C           6.0034    0.1253    0.1876 C.ar    1  UNL1       -0.0436
     17 C           5.3616    1.3365   -0.0166 C.ar    1  UNL1       -0.0583
     18 C           3.9672    1.3743   -0.0792 C.ar    1  UNL1       -0.0357
     19 C           1.0829   -1.1118    0.1679 C.ar    1  UNL1       -0.0448
     20 C          -0.3175   -1.2345    0.1286 C.ar    1  UNL1       -0.0161
     21 C          -0.9498   -2.4761    0.2851 C.ar    1  UNL1       -0.0534
     22 C          -2.3425   -2.5812    0.2435 C.ar    1  UNL1       -0.0534
     23 H          -5.3239    1.7308   -0.5119 H       1  UNL1        0.0624
     24 H          -6.3977   -0.4692   -0.2327 H       1  UNL1        0.0618
     25 H          -5.0356   -2.4919    0.1201 H       1  UNL1        0.0624
     26 H          -0.8169    3.2854   -0.5558 H       1  UNL1        0.0624
     27 H          -3.2545    3.1120   -0.6301 H       1  UNL1        0.0624
     28 H           1.3735    2.2356   -0.3119 H       1  UNL1        0.0630
     29 H           5.6654   -1.9797    0.4830 H       1  UNL1        0.0830
     30 H           7.0839    0.0616    0.2412 H       1  UNL1        0.0633
     31 H           5.9379    2.2508   -0.1273 H       1  UNL1        0.0619
     32 H           3.4889    2.3325   -0.2396 H       1  UNL1        0.0639
     33 H           1.6786   -2.0116    0.3244 H       1  UNL1        0.0630
     34 H          -0.3591   -3.3764    0.4415 H       1  UNL1        0.0624
     35 H          -2.7988   -3.5605    0.3686 H       1  UNL1        0.0624
@<TRIPOS>BOND
     1     1     2   ar
     2     2     3   ar
     3     3     4   ar
     4     4     5   ar
     5     5     6   ar
     6     6     7   ar
     7     7     8   ar
     8     8     9   ar
     9     9    10   ar
    10     8    11   ar
    11    11    12   ar
    12    12    13    1
    13    13    14   ar
    14    14    15   ar
    15    15    16   ar
    16    16    17   ar
    17    17    18   ar
    18    12    19   ar
    19     7    20   ar
    20    20    21   ar
    21    21    22   ar
    22     6     1   ar
    23    10     1   ar
    24    22     5   ar
    25    18    13   ar
    26    20    19   ar
    27     2    23    1
    28     3    24    1
    29     4    25    1
    30     9    26    1
    31    10    27    1
    32    11    28    1
    33    15    29    1
    34    16    30    1
    35    17    31    1
    36    18    32    1
    37    19    33    1
    38    21    34    1
    39    22    35    1
