@<TRIPOS>MOLECULE
*****
 35 39 0 0 0
SMALL
GASTEIGER

@<TRIPOS>ATOM
      1 C          -3.3762    0.3031   -0.0187 C.ar    1  UNL1       -0.0167
      2 C          -4.5168   -0.5123    0.0227 C.ar    1  UNL1       -0.0540
      3 C          -4.3975   -1.9007    0.0219 C.ar    1  UNL1       -0.0606
      4 C          -3.1361   -2.4912   -0.0202 C.ar    1  UNL1       -0.0540
      5 C          -1.9781   -1.7005   -0.0621 C.ar    1  UNL1       -0.0167
      6 C          -2.0925   -0.2921   -0.0616 C.ar    1  UNL1       -0.0025
      7 C          -0.9268    0.5197   -0.1038 C.ar    1  UNL1       -0.0019
      8 C          -1.0665    1.9284   -0.1024 C.ar    1  UNL1       -0.0167
      9 C          -2.3445    2.5004   -0.0597 C.ar    1  UNL1       -0.0534
     10 C          -3.4854    1.6981   -0.0183 C.ar    1  UNL1       -0.0534
     11 C           0.0734    2.7358   -0.1438 C.ar    1  UNL1       -0.0534
     12 C           1.3429    2.1641   -0.1862 C.ar    1  UNL1       -0.0529
     13 C           1.5101    0.7693   -0.1886 C.ar    1  UNL1       -0.0100
     14 C           2.8801    0.2366   -0.2346 C.ar    1  UNL1       -0.0144
     15 C           3.5073   -0.0229   -1.4569 C.ar    1  UNL1       -0.0359
     16 C           4.7989   -0.5234   -1.4486 C.ar    1  UNL1        0.0281
     17 N           5.4984   -0.7775   -0.3225 N.ar    1  UNL1       -0.2632
     18 C           4.8783   -0.5177    0.8479 C.ar    1  UNL1        0.0281
     19 C           3.5902   -0.0169    0.9429 C.ar    1  UNL1       -0.0359
     20 C           0.3630   -0.0723   -0.1469 C.ar    1  UNL1       -0.0090
     21 C           0.4377   -1.4821   -0.1460 C.ar    1  UNL1       -0.0528
     22 C          -0.7081   -2.2804   -0.1045 C.ar    1  UNL1       -0.0534
     23 H          -5.5101   -0.0700    0.0559 H       1  UNL1        0.0624
     24 H          -5.2881   -2.5229    0.0542 H       1  UNL1        0.0618
     25 H          -3.0629   -3.5765   -0.0200 H       1  UNL1        0.0624
     26 H          -2.4657    3.5816   -0.0581 H       1  UNL1        0.0624
     27 H          -4.4623    2.1753    0.0142 H       1  UNL1        0.0624
     28 H          -0.0147    3.8201   -0.1434 H       1  UNL1        0.0624
     29 H           2.2139    2.8167   -0.2179 H       1  UNL1        0.0624
     30 H           2.9985    0.1582   -2.3982 H       1  UNL1        0.0639
     31 H           5.3203   -0.7398   -2.3766 H       1  UNL1        0.0830
     32 H           5.4625   -0.7296    1.7387 H       1  UNL1        0.0830
     33 H           3.1476    0.1689    1.9161 H       1  UNL1        0.0639
     34 H           1.4024   -1.9852   -0.1781 H       1  UNL1        0.0624
     35 H          -0.5935   -3.3622   -0.1058 H       1  UNL1        0.0624
@<TRIPOS>BOND
     1     1     2   ar
     2     2     3   ar
     3     3     4   ar
     4     4     5   ar
     5     5     6   ar
     6     6     7   ar
     7     7     8   ar
     8     8     9   ar
     9     9    10   ar
    10     8    11   ar
    11    11    12   ar
    12    12    13   ar
    13    13    14    1
    14    14    15   ar
    15    15    16   ar
    16    16    17   ar
    17    17    18   ar
    18    18    19   ar
    19     7    20   ar
    20    20    21   ar
    21    21    22   ar
    22     6     1   ar
    23    10     1   ar
    24    22     5   ar
    25    20    13   ar
    26    19    14   ar
    27     2    23    1
    28     3    24    1
    29     4    25    1
    30     9    26    1
    31    10    27    1
    32    11    28    1
    33    12    29    1
    34    15    30    1
    35    16    31    1
    36    18    32    1
    37    19    33    1
    38    21    34    1
    39    22    35    1
