@<TRIPOS>MOLECULE
*****
 24 27 0 0 0
SMALL
GASTEIGER

@<TRIPOS>ATOM
      1 C           1.1819   -1.1332   -0.0266 C.ar    1  UNL1        0.0000
      2 C           2.5592   -1.0389   -0.0557 C.ar    1  UNL1        0.0000
      3 C           3.1995    0.1983   -0.0304 C.ar    1  UNL1        0.0000
      4 C           2.4404    1.3508    0.0248 C.ar    1  UNL1        0.0000
      5 C           1.0525    1.2621    0.0544 C.ar    1  UNL1        0.0000
      6 C           0.4093    0.0189    0.0290 C.ar    1  UNL1        0.0000
      7 N          -1.0077   -0.0722    0.0592 N.ar    1  UNL1        0.0000
      8 C          -1.6989   -1.2028    0.0385 C.ar    1  UNL1        0.0000
      9 B          -0.9206   -2.5638   -0.0239 B       1  UNL1        0.0000
     10 N           0.6131   -2.4374   -0.0557 N.ar    1  UNL1        0.0000
     11 C          -3.0529   -0.8840    0.0806 C.ar    1  UNL1        0.0000
     12 C          -3.1214    0.5056    0.1274 C.ar    1  UNL1        0.0000
     13 C          -1.8291    0.9782    0.1125 C.ar    1  UNL1        0.0000
     14 B          -1.2213    2.4303    0.1456 B       1  UNL1        0.0000
     15 N           0.3144    2.4799    0.1113 N.ar    1  UNL1        0.0000
     16 H           3.1778   -1.9230   -0.0989 H       1  UNL1        0.0000
     17 H           4.2804    0.2710   -0.0533 H       1  UNL1        0.0000
     18 H           2.8968    2.3301    0.0460 H       1  UNL1        0.0000
     19 H          -1.4847   -3.5168   -0.4104 H       1  UNL1        0.0000
     20 H           1.1778   -3.3055   -0.0971 H       1  UNL1        0.0000
     21 H          -3.8635   -1.5819    0.0768 H       1  UNL1        0.0000
     22 H          -3.9908    1.1239    0.1678 H       1  UNL1        0.0000
     23 H          -1.8709    3.3050   -0.3528 H       1  UNL1        0.0000
     24 H           0.7585    3.4051    0.1310 H       1  UNL1        0.0000
@<TRIPOS>BOND
     1     1     2   ar
     2     2     3   ar
     3     3     4   ar
     4     4     5   ar
     5     5     6   ar
     6     6     7   ar
     7     7     8   ar
     8     8     9   ar
     9     9    10   ar
    10     8    11   ar
    11    11    12   ar
    12    12    13   ar
    13    13    14   ar
    14    14    15   ar
    15     6     1   ar
    16    10     1   ar
    17    15     5   ar
    18    13     7   ar
    19     2    16    1
    20     3    17    1
    21     4    18    1
    22     9    19    1
    23    10    20    1
    24    11    21    1
    25    12    22    1
    26    14    23    1
    27    15    24    1
