@<TRIPOS>MOLECULE
*****
 43 49 0 0 0
SMALL
GASTEIGER

@<TRIPOS>ATOM
      1 SI         -1.8628   -1.4175   -0.5213 Si      1  UNL1        0.0000
      2 C          -3.1317   -0.0505   -0.2184 C.2     1  UNL1        0.0000
      3 C          -2.5142    1.1361   -0.0448 C.2     1  UNL1        0.0000
      4 C          -1.0589    1.1086   -0.1228 C.2     1  UNL1        0.0000
      5 C          -0.5057   -0.1027   -0.3499 C.2     1  UNL1        0.0000
      6 C           0.8886   -0.3903   -0.4286 C.ar    1  UNL1        0.0000
      7 S           2.0273    0.5602    0.4778 S.2     1  UNL1        0.0000
      8 C           3.3969   -0.3154   -0.0696 C.ar    1  UNL1        0.0000
      9 C           4.7139    0.0234    0.3791 C.ar    1  UNL1        0.0000
     10 S           5.8424   -1.1126    1.0528 S.2     1  UNL1        0.0000
     11 C           7.0733    0.0918    1.3121 C.ar    1  UNL1        0.0000
     12 C           6.5837    1.2737    0.8832 C.ar    1  UNL1        0.0000
     13 C           6.9623    2.6197    0.7656 C.ar    1  UNL1        0.0000
     14 C           5.8552    3.2561    0.1899 C.ar    1  UNL1        0.0000
     15 O           4.7884    2.4157   -0.0708 O.2     1  UNL1        0.0000
     16 C           5.3058    1.2368    0.3785 C.ar    1  UNL1        0.0000
     17 C           3.0156   -1.3233   -0.9247 C.ar    1  UNL1        0.0000
     18 N           3.8945   -2.1798   -1.5269 N.ar    1  UNL1        0.0000
     19 C           3.2509   -3.0685   -2.3261 C.ar    1  UNL1        0.0000
     20 C           1.8688   -3.1169   -2.5202 C.ar    1  UNL1        0.0000
     21 N           0.9686   -2.2822   -1.9385 N.ar    1  UNL1        0.0000
     22 C           1.5818   -1.3687   -1.1264 C.ar    1  UNL1        0.0000
     23 C          -4.5322   -0.2413   -0.1403 C.ar    1  UNL1        0.0000
     24 S          -5.3871   -1.4017   -1.1489 S.2     1  UNL1        0.0000
     25 C          -6.9475   -1.0218   -0.5001 C.ar    1  UNL1        0.0000
     26 C          -6.7828   -0.0602    0.4267 C.ar    1  UNL1        0.0000
     27 N          -7.7586    0.5246    1.1796 N.ar    1  UNL1        0.0000
     28 C          -7.0112    1.4171    1.9450 C.ar    1  UNL1        0.0000
     29 C          -5.6365    1.3416    1.6335 C.ar    1  UNL1        0.0000
     30 C          -5.4861    0.3590    0.6170 C.ar    1  UNL1        0.0000
     31 H          -1.8321   -2.4098    0.5875 H       1  UNL1        0.0000
     32 H          -1.9944   -1.9760   -1.8936 H       1  UNL1        0.0000
     33 H          -3.0262    2.0723    0.1442 H       1  UNL1        0.0000
     34 H          -0.5042    2.0306    0.0077 H       1  UNL1        0.0000
     35 H           8.0302   -0.1641    1.7438 H       1  UNL1        0.0000
     36 H           7.8936    3.0916    1.0435 H       1  UNL1        0.0000
     37 H           5.6779    4.2856   -0.0920 H       1  UNL1        0.0000
     38 H           3.8986   -3.7773   -2.8343 H       1  UNL1        0.0000
     39 H           1.4373   -3.8639   -3.1808 H       1  UNL1        0.0000
     40 H          -7.8512   -1.5130   -0.8316 H       1  UNL1        0.0000
     41 H          -8.7536    0.3380    1.1666 H       1  UNL1        0.0000
     42 H          -7.5205    2.0448    2.6651 H       1  UNL1        0.0000
     43 H          -4.8580    1.9300    2.1002 H       1  UNL1        0.0000
@<TRIPOS>BOND
     1     1     2    1
     2     2     3    2
     3     3     4    1
     4     4     5    2
     5     5     6    1
     6     6     7   ar
     7     7     8   ar
     8     8     9    1
     9     9    10   ar
    10    10    11   ar
    11    11    12   ar
    12    12    13   ar
    13    13    14   ar
    14    14    15   ar
    15    15    16   ar
    16     8    17   ar
    17    17    18   ar
    18    18    19   ar
    19    19    20   ar
    20    20    21   ar
    21    21    22   ar
    22     2    23    1
    23    23    24   ar
    24    24    25   ar
    25    25    26   ar
    26    26    27   ar
    27    27    28   ar
    28    28    29   ar
    29    29    30   ar
    30     5     1    1
    31    22     6   ar
    32    30    23   ar
    33    16     9   ar
    34    22    17   ar
    35    30    26   ar
    36    16    12   ar
    37     1    31    1
    38     1    32    1
    39     3    33    1
    40     4    34    1
    41    11    35    1
    42    13    36    1
    43    14    37    1
    44    19    38    1
    45    20    39    1
    46    25    40    1
    47    27    41    1
    48    28    42    1
    49    29    43    1
