@<TRIPOS>MOLECULE
*****
 24 26 0 0 0
SMALL
GASTEIGER

@<TRIPOS>ATOM
      1 C          -1.8285   -0.7020   -0.2341 C.ar    1  UNL1        0.1132
      2 N          -0.5633   -1.1414   -0.2369 N.ar    1  UNL1       -0.1471
      3 N           0.1575   -0.0021   -0.0934 N.ar    1  UNL1       -0.1492
      4 C           1.5782   -0.0211   -0.0470 C.ar    1  UNL1        0.0862
      5 C           2.2944    1.1759    0.1023 C.ar    1  UNL1       -0.0345
      6 C           3.6900    1.1528    0.1474 C.ar    1  UNL1       -0.0597
      7 C           4.3736   -0.0585    0.0443 C.ar    1  UNL1       -0.0616
      8 C           3.6660   -1.2512   -0.1043 C.ar    1  UNL1       -0.0597
      9 C           2.2703   -1.2370   -0.1503 C.ar    1  UNL1       -0.0345
     10 N          -0.5404    1.1561    0.0037 N.ar    1  UNL1       -0.1471
     11 C          -1.8140    0.7507   -0.0820 C.ar    1  UNL1        0.1132
     12 C          -2.9942    1.5141   -0.0426 C.ar    1  UNL1       -0.0324
     13 C          -4.1795    0.7627   -0.1614 C.ar    1  UNL1       -0.0596
     14 C          -4.1936   -0.6507   -0.3093 C.ar    1  UNL1       -0.0596
     15 C          -3.0236   -1.4336   -0.3512 C.ar    1  UNL1       -0.0324
     16 H           1.7804    2.1317    0.1845 H       1  UNL1        0.0639
     17 H           4.2438    2.0812    0.2632 H       1  UNL1        0.0618
     18 H           5.4601   -0.0731    0.0798 H       1  UNL1        0.0618
     19 H           4.2012   -2.1942   -0.1844 H       1  UNL1        0.0618
     20 H           1.7374   -2.1787   -0.2667 H       1  UNL1        0.0639
     21 H          -2.9868    2.5899    0.0699 H       1  UNL1        0.0640
     22 H          -5.1334    1.2908   -0.1388 H       1  UNL1        0.0618
     23 H          -5.1578   -1.1531   -0.3946 H       1  UNL1        0.0618
     24 H          -3.0376   -2.5093   -0.4639 H       1  UNL1        0.0640
@<TRIPOS>BOND
     1     1     2   ar
     2     2     3   ar
     3     3     4    1
     4     4     5   ar
     5     5     6   ar
     6     6     7   ar
     7     7     8   ar
     8     8     9   ar
     9     3    10   ar
    10    10    11   ar
    11    11    12   ar
    12    12    13   ar
    13    13    14   ar
    14    14    15   ar
    15    11     1   ar
    16    15     1   ar
    17     9     4   ar
    18     5    16    1
    19     6    17    1
    20     7    18    1
    21     8    19    1
    22     9    20    1
    23    12    21    1
    24    13    22    1
    25    14    23    1
    26    15    24    1
