@<TRIPOS>MOLECULE
*****
 38 43 0 0 0
SMALL
GASTEIGER

@<TRIPOS>ATOM
      1 C           2.3842    0.3433   -1.3382 C.ar    1  UNL1        0.0068
      2 C           3.1057    0.2324   -0.1260 C.ar    1  UNL1        0.0520
      3 N           2.1941    0.0254    0.9217 N.ar    1  UNL1       -0.3499
      4 C           0.9937    0.0170    0.3389 C.ar    1  UNL1        0.1098
      5 C           1.0360    0.1968   -0.9749 C.ar    1  UNL1        0.1558
      6 O          -0.2249    0.1742   -1.4846 O.2     1  UNL1       -0.4510
      7 C          -1.0192   -0.0299   -0.3951 C.ar    1  UNL1        0.1635
      8 C          -0.2631   -0.1221    0.6960 C.ar    1  UNL1        0.1104
      9 N          -0.9555   -0.3233    1.8187 N.ar    1  UNL1       -0.3499
     10 C          -2.2893   -0.3640    1.4040 C.ar    1  UNL1        0.0512
     11 C          -3.4416   -0.5513    2.1757 C.ar    1  UNL1       -0.0371
     12 C          -4.6824   -0.5535    1.5249 C.ar    1  UNL1       -0.0521
     13 C          -4.7962   -0.3751    0.1381 C.ar    1  UNL1       -0.0171
     14 C          -6.0445   -0.3790   -0.5043 C.ar    1  UNL1       -0.0540
     15 C          -6.1394   -0.1996   -1.8876 C.ar    1  UNL1       -0.0612
     16 C          -4.9896   -0.0135   -2.6527 C.ar    1  UNL1       -0.0611
     17 C          -3.7376   -0.0054   -2.0392 C.ar    1  UNL1       -0.0533
     18 C          -3.6328   -0.1854   -0.6458 C.ar    1  UNL1       -0.0052
     19 C          -2.3686   -0.1801   -0.0048 C.ar    1  UNL1        0.0504
     20 C           4.5637    0.3083    0.0941 C.ar    1  UNL1        0.0165
     21 C           5.4480    0.5156   -0.9703 C.ar    1  UNL1       -0.0497
     22 C           6.8237    0.5850   -0.7462 C.ar    1  UNL1       -0.0430
     23 C           7.2875    0.4442    0.5489 C.ar    1  UNL1        0.0276
     24 N           6.4808    0.2431    1.6095 N.ar    1  UNL1       -0.2626
     25 C           5.1487    0.1809    1.3551 C.ar    1  UNL1        0.0366
     26 H           2.7794    0.5054   -2.3300 H       1  UNL1        0.0676
     27 H           2.3762   -0.0943    1.9090 H       1  UNL1        0.1661
     28 H          -0.5905   -0.4229    2.7557 H       1  UNL1        0.1661
     29 H          -3.3859   -0.6919    3.2509 H       1  UNL1        0.0638
     30 H          -5.5784   -0.6992    2.1262 H       1  UNL1        0.0624
     31 H          -6.9574   -0.5222    0.0694 H       1  UNL1        0.0624
     32 H          -7.1145   -0.2055   -2.3682 H       1  UNL1        0.0618
     33 H          -5.0667    0.1256   -3.7278 H       1  UNL1        0.0618
     34 H          -2.8473    0.1408   -2.6471 H       1  UNL1        0.0624
     35 H           5.0848    0.6262   -1.9879 H       1  UNL1        0.0625
     36 H           7.5142    0.7454   -1.5667 H       1  UNL1        0.0633
     37 H           8.3492    0.4909    0.7733 H       1  UNL1        0.0829
     38 H           4.5557    0.0177    2.2486 H       1  UNL1        0.0836
@<TRIPOS>BOND
     1     1     2   ar
     2     2     3   ar
     3     3     4   ar
     4     4     5   ar
     5     5     6   ar
     6     6     7   ar
     7     7     8   ar
     8     8     9   ar
     9     9    10   ar
    10    10    11   ar
    11    11    12   ar
    12    12    13   ar
    13    13    14   ar
    14    14    15   ar
    15    15    16   ar
    16    16    17   ar
    17    17    18   ar
    18    18    19   ar
    19     2    20    1
    20    20    21   ar
    21    21    22   ar
    22    22    23   ar
    23    23    24   ar
    24    24    25   ar
    25     5     1   ar
    26    19     7   ar
    27    25    20   ar
    28     8     4   ar
    29    19    10   ar
    30    18    13   ar
    31     1    26    1
    32     3    27    1
    33     9    28    1
    34    11    29    1
    35    12    30    1
    36    14    31    1
    37    15    32    1
    38    16    33    1
    39    17    34    1
    40    21    35    1
    41    22    36    1
    42    23    37    1
    43    25    38    1
