@<TRIPOS>MOLECULE
*****
 46 52 0 0 0
SMALL
GASTEIGER

@<TRIPOS>ATOM
      1 C           2.4092   -1.6518    0.0383 C.ar    1  UNL1        0.0067
      2 C           3.3081   -0.5839    0.0145 C.ar    1  UNL1        0.0520
      3 N           2.5658    0.5937   -0.0234 N.ar    1  UNL1       -0.3511
      4 C           1.2315    0.2828   -0.0237 C.ar    1  UNL1        0.0939
      5 C           1.1434   -1.0520    0.0131 C.ar    1  UNL1        0.1544
      6 O          -0.1472   -1.4483    0.0155 O.2     1  UNL1       -0.4526
      7 C          -0.8965   -0.2929   -0.0218 C.ar    1  UNL1        0.1466
      8 C          -0.0749    0.8337   -0.0478 C.ar    1  UNL1        0.0525
      9 C          -0.6491    2.1218   -0.0877 C.ar    1  UNL1       -0.0045
     10 C           0.1943    3.2568   -0.1138 C.ar    1  UNL1       -0.0533
     11 C          -0.3411    4.5393   -0.1533 C.ar    1  UNL1       -0.0611
     12 C          -1.7167    4.7013   -0.1670 C.ar    1  UNL1       -0.0611
     13 C          -2.5552    3.5804   -0.1413 C.ar    1  UNL1       -0.0534
     14 C          -2.0600    2.2487   -0.1007 C.ar    1  UNL1       -0.0093
     15 C          -2.8855    1.0668   -0.0732 C.ar    1  UNL1       -0.0060
     16 C          -4.2919    1.1437   -0.0848 C.ar    1  UNL1       -0.0527
     17 C          -5.1111    0.0145   -0.0587 C.ar    1  UNL1       -0.0534
     18 C          -4.5719   -1.2678   -0.0192 C.ar    1  UNL1       -0.0172
     19 C          -5.4468   -2.3690    0.0058 C.ar    1  UNL1       -0.0540
     20 C          -4.9635   -3.6717    0.0455 C.ar    1  UNL1       -0.0612
     21 C          -3.5966   -3.8839    0.0606 C.ar    1  UNL1       -0.0611
     22 C          -2.7212   -2.7921    0.0359 C.ar    1  UNL1       -0.0533
     23 C          -3.1677   -1.4415   -0.0049 C.ar    1  UNL1       -0.0066
     24 C          -2.3241   -0.2504   -0.0326 C.ar    1  UNL1        0.0334
     25 C           4.7830   -0.6017    0.0249 C.ar    1  UNL1        0.0165
     26 C           5.4924   -1.8074    0.0635 C.ar    1  UNL1       -0.0497
     27 C           6.8879   -1.8093    0.0729 C.ar    1  UNL1       -0.0430
     28 C           7.5478   -0.5944    0.0431 C.ar    1  UNL1        0.0276
     29 N           6.9146    0.5945    0.0055 N.ar    1  UNL1       -0.2626
     30 C           5.5575    0.5594   -0.0026 C.ar    1  UNL1        0.0366
     31 H           2.6296   -2.7085    0.0693 H       1  UNL1        0.0676
     32 H           2.9117    1.5432   -0.0476 H       1  UNL1        0.1660
     33 H           1.2741    3.1552   -0.1037 H       1  UNL1        0.0624
     34 H           0.3127    5.4069   -0.1731 H       1  UNL1        0.0618
     35 H          -2.1479    5.6989   -0.1978 H       1  UNL1        0.0618
     36 H          -3.6227    3.7809   -0.1540 H       1  UNL1        0.0624
     37 H          -4.8053    2.1003   -0.1150 H       1  UNL1        0.0624
     38 H          -6.1900    0.1597   -0.0700 H       1  UNL1        0.0624
     39 H          -6.5244   -2.2171   -0.0057 H       1  UNL1        0.0624
     40 H          -5.6510   -4.5122    0.0644 H       1  UNL1        0.0618
     41 H          -3.1987   -4.8948    0.0915 H       1  UNL1        0.0618
     42 H          -1.6635   -3.0322    0.0497 H       1  UNL1        0.0624
     43 H           4.9747   -2.7619    0.0869 H       1  UNL1        0.0625
     44 H           7.4435   -2.7400    0.1028 H       1  UNL1        0.0633
     45 H           8.6328   -0.5444    0.0490 H       1  UNL1        0.0829
     46 H           5.1099    1.5471   -0.0334 H       1  UNL1        0.0836
@<TRIPOS>BOND
     1     1     2   ar
     2     2     3   ar
     3     3     4   ar
     4     4     5   ar
     5     5     6   ar
     6     6     7   ar
     7     7     8   ar
     8     8     9   ar
     9     9    10   ar
    10    10    11   ar
    11    11    12   ar
    12    12    13   ar
    13    13    14   ar
    14    14    15   ar
    15    15    16   ar
    16    16    17   ar
    17    17    18   ar
    18    18    19   ar
    19    19    20   ar
    20    20    21   ar
    21    21    22   ar
    22    22    23   ar
    23    23    24   ar
    24     2    25    1
    25    25    26   ar
    26    26    27   ar
    27    27    28   ar
    28    28    29   ar
    29    29    30   ar
    30     5     1   ar
    31    24     7   ar
    32    30    25   ar
    33     8     4   ar
    34    14     9   ar
    35    24    15   ar
    36    23    18   ar
    37     1    31    1
    38     3    32    1
    39    10    33    1
    40    11    34    1
    41    12    35    1
    42    13    36    1
    43    16    37    1
    44    17    38    1
    45    19    39    1
    46    20    40    1
    47    21    41    1
    48    22    42    1
    49    26    43    1
    50    27    44    1
    51    28    45    1
    52    30    46    1
