@<TRIPOS>MOLECULE
*****
 34 38 0 0 0
SMALL
GASTEIGER

@<TRIPOS>ATOM
      1 C           1.3766   -1.1407    1.3893 C.ar    1  UNL1       -0.0220
      2 C           2.1139   -0.4356    0.4455 C.ar    1  UNL1        0.0480
      3 N           1.2118    0.2300   -0.3598 N.ar    1  UNL1       -0.3532
      4 C          -0.0677   -0.0429    0.0587 C.ar    1  UNL1        0.0620
      5 C           0.0045   -0.8764    1.1238 C.ar    1  UNL1        0.0387
      6 S          -1.5504   -1.2907    1.7383 S.2     1  UNL1       -0.0845
      7 C          -2.3227   -0.3090    0.5206 C.ar    1  UNL1        0.0478
      8 C          -1.3943    0.3134   -0.3274 C.ar    1  UNL1        0.0152
      9 C          -1.8565    1.1473   -1.3721 C.ar    1  UNL1       -0.0508
     10 C          -3.2266    1.3492   -1.5576 C.ar    1  UNL1       -0.0519
     11 C          -4.1526    0.7308   -0.7150 C.ar    1  UNL1        0.0015
     12 C          -5.5357    0.9012   -0.8595 C.ar    1  UNL1       -0.0511
     13 C          -6.4080    0.2562    0.0144 C.ar    1  UNL1       -0.0430
     14 C          -5.8730   -0.5433    1.0112 C.ar    1  UNL1        0.0283
     15 N          -4.5502   -0.7386    1.1908 N.ar    1  UNL1       -0.2538
     16 C          -3.7135   -0.1035    0.3315 C.ar    1  UNL1        0.0853
     17 C           3.5763   -0.3511    0.2589 C.ar    1  UNL1       -0.0017
     18 C           4.1521    0.4213   -0.7627 C.ar    1  UNL1       -0.0526
     19 C           5.5409    0.4890   -0.9238 C.ar    1  UNL1       -0.0611
     20 C           6.3801   -0.2147   -0.0661 C.ar    1  UNL1       -0.0617
     21 C           5.8313   -0.9861    0.9527 C.ar    1  UNL1       -0.0611
     22 C           4.4431   -1.0526    1.1122 C.ar    1  UNL1       -0.0526
     23 H           1.7577   -1.7726    2.1793 H       1  UNL1        0.0650
     24 H           1.4116    0.8340   -1.1452 H       1  UNL1        0.1659
     25 H          -1.1481    1.6358   -2.0364 H       1  UNL1        0.0625
     26 H          -3.5607    1.9943   -2.3671 H       1  UNL1        0.0624
     27 H          -5.9391    1.5321   -1.6470 H       1  UNL1        0.0625
     28 H          -7.4818    0.3746   -0.0799 H       1  UNL1        0.0633
     29 H          -6.5153   -1.0653    1.7150 H       1  UNL1        0.0830
     30 H           3.5403    0.9880   -1.4567 H       1  UNL1        0.0624
     31 H           5.9651    1.0934   -1.7216 H       1  UNL1        0.0618
     32 H           7.4583   -0.1625   -0.1908 H       1  UNL1        0.0618
     33 H           6.4800   -1.5391    1.6271 H       1  UNL1        0.0618
     34 H           4.0526   -1.6660    1.9198 H       1  UNL1        0.0624
@<TRIPOS>BOND
     1     1     2   ar
     2     2     3   ar
     3     3     4   ar
     4     4     5   ar
     5     5     6   ar
     6     6     7   ar
     7     7     8   ar
     8     8     9   ar
     9     9    10   ar
    10    10    11   ar
    11    11    12   ar
    12    12    13   ar
    13    13    14   ar
    14    14    15   ar
    15    15    16   ar
    16     2    17    1
    17    17    18   ar
    18    18    19   ar
    19    19    20   ar
    20    20    21   ar
    21    21    22   ar
    22     5     1   ar
    23    16     7   ar
    24    22    17   ar
    25     8     4   ar
    26    16    11   ar
    27     1    23    1
    28     3    24    1
    29     9    25    1
    30    10    26    1
    31    12    27    1
    32    13    28    1
    33    14    29    1
    34    18    30    1
    35    19    31    1
    36    20    32    1
    37    21    33    1
    38    22    34    1
