@<TRIPOS>MOLECULE
*****
 42 48 0 0 0
SMALL
GASTEIGER

@<TRIPOS>ATOM
      1 C           2.7188   -1.0369   -0.9824 C.ar    1  UNL1       -0.0285
      2 C           3.2093    0.0583   -0.2842 C.ar    1  UNL1        0.0511
      3 N           2.0946    0.6683    0.2638 N.ar    1  UNL1       -0.3540
      4 C           0.9399   -0.0009   -0.0650 C.ar    1  UNL1        0.0476
      5 C          -0.3906    0.2599    0.2671 C.ar    1  UNL1       -0.0280
      6 C          -1.4164   -0.5853   -0.1976 C.ar    1  UNL1        0.0100
      7 C          -1.0321   -1.6687   -0.9881 C.ar    1  UNL1        0.0482
      8 C           0.2978   -1.9285   -1.3194 C.ar    1  UNL1       -0.0286
      9 C           1.3056   -1.0809   -0.8509 C.ar    1  UNL1        0.0022
     10 N          -2.1696   -2.3500   -1.3271 N.ar    1  UNL1       -0.3541
     11 C          -3.2829   -1.7536   -0.7887 C.ar    1  UNL1        0.0481
     12 C          -4.6205   -2.1409   -0.9023 C.ar    1  UNL1       -0.0372
     13 C          -5.5815   -1.3646   -0.2575 C.ar    1  UNL1       -0.0521
     14 C          -5.2298   -0.2329    0.4819 C.ar    1  UNL1       -0.0172
     15 C          -6.2240    0.5270    1.1192 C.ar    1  UNL1       -0.0540
     16 C          -5.8958    1.6602    1.8623 C.ar    1  UNL1       -0.0612
     17 C          -4.5674    2.0503    1.9789 C.ar    1  UNL1       -0.0611
     18 C          -3.5626    1.3085    1.3528 C.ar    1  UNL1       -0.0534
     19 C          -3.8666    0.1563    0.5939 C.ar    1  UNL1       -0.0081
     20 C          -2.8593   -0.6330   -0.0653 C.ar    1  UNL1        0.0152
     21 C           4.5758    0.5581   -0.0964 C.ar    1  UNL1        0.0445
     22 C           4.9108    1.6995    0.6515 C.ar    1  UNL1        0.0389
     23 N           6.1536    2.2413    0.8823 N.ar    1  UNL1       -0.2603
     24 C           7.2675    1.6620    0.3557 C.ar    1  UNL1        0.0557
     25 C           7.1058    0.5020   -0.4248 C.ar    1  UNL1        0.1185
     26 N           8.0892   -0.1945   -1.0172 N.ar    1  UNL1       -0.1892
     27 S           7.3584   -1.4570   -1.8031 S.2     1  UNL1        0.1165
     28 N           5.7715   -1.1758   -1.4277 N.ar    1  UNL1       -0.1900
     29 C           5.7234   -0.0698   -0.6604 C.ar    1  UNL1        0.1119
     30 H           3.3096   -1.7505   -1.5417 H       1  UNL1        0.0645
     31 H           2.1015    1.4993    0.8354 H       1  UNL1        0.1659
     32 H          -0.6215    1.1184    0.8849 H       1  UNL1        0.0645
     33 H           0.5577   -2.7831   -1.9379 H       1  UNL1        0.0645
     34 H          -2.1878   -3.1818   -1.8980 H       1  UNL1        0.1659
     35 H          -4.9113   -3.0175   -1.4729 H       1  UNL1        0.0638
     36 H          -6.6255   -1.6609   -0.3420 H       1  UNL1        0.0624
     37 H          -7.2705    0.2400    1.0414 H       1  UNL1        0.0624
     38 H          -6.6782    2.2364    2.3489 H       1  UNL1        0.0618
     39 H          -4.3087    2.9332    2.5574 H       1  UNL1        0.0618
     40 H          -2.5425    1.6483    1.4700 H       1  UNL1        0.0624
     41 H           4.1298    2.2796    1.1405 H       1  UNL1        0.0837
     42 H           8.2249    2.1214    0.5625 H       1  UNL1        0.0852
@<TRIPOS>BOND
     1     1     2   ar
     2     2     3   ar
     3     3     4   ar
     4     4     5   ar
     5     5     6   ar
     6     6     7   ar
     7     7     8   ar
     8     8     9   ar
     9     7    10   ar
    10    10    11   ar
    11    11    12   ar
    12    12    13   ar
    13    13    14   ar
    14    14    15   ar
    15    15    16   ar
    16    16    17   ar
    17    17    18   ar
    18    18    19   ar
    19    19    20   ar
    20     2    21    1
    21    21    22   ar
    22    22    23   ar
    23    23    24   ar
    24    24    25   ar
    25    25    26   ar
    26    26    27   ar
    27    27    28   ar
    28    28    29   ar
    29     9     1   ar
    30    20    11   ar
    31    29    21   ar
    32     9     4   ar
    33    19    14   ar
    34    29    25   ar
    35    20     6   ar
    36     1    30    1
    37     3    31    1
    38     5    32    1
    39     8    33    1
    40    10    34    1
    41    12    35    1
    42    13    36    1
    43    15    37    1
    44    16    38    1
    45    17    39    1
    46    18    40    1
    47    22    41    1
    48    24    42    1
