@<TRIPOS>MOLECULE
*****
 36 42 0 0 0
SMALL
GASTEIGER

@<TRIPOS>ATOM
      1 C          -1.9088   -1.6796   -0.2223 C.ar    1  UNL1       -0.0285
      2 C          -2.4993   -0.4251   -0.2103 C.ar    1  UNL1        0.0511
      3 N          -1.4579    0.4818   -0.1784 N.ar    1  UNL1       -0.3540
      4 C          -0.2434   -0.1576   -0.1700 C.ar    1  UNL1        0.0476
      5 C           1.0514    0.3507   -0.1409 C.ar    1  UNL1       -0.0289
      6 C           2.1642   -0.5173   -0.1380 C.ar    1  UNL1        0.0010
      7 C           1.9053   -1.8928   -0.1656 C.ar    1  UNL1        0.0212
      8 C           0.5943   -2.3900   -0.1948 C.ar    1  UNL1       -0.0382
      9 C          -0.4966   -1.5185   -0.1972 C.ar    1  UNL1        0.0013
     10 S           3.3527   -2.8304   -0.1586 S.2     1  UNL1       -0.0881
     11 C           4.3687   -1.4444   -0.1189 C.ar    1  UNL1        0.0227
     12 C           5.7838   -1.4200   -0.0961 C.ar    1  UNL1       -0.0452
     13 C           6.4833   -0.2056   -0.0643 C.ar    1  UNL1       -0.0324
     14 C           5.7030    0.9659   -0.0567 C.ar    1  UNL1        0.1005
     15 N           6.1851    2.2234   -0.0277 N.ar    1  UNL1       -0.1908
     16 S           4.8619    3.2466   -0.0312 S.2     1  UNL1        0.1165
     17 N           3.6139    2.1331   -0.0699 N.ar    1  UNL1       -0.1901
     18 C           4.2481    0.9697   -0.0797 C.ar    1  UNL1        0.1086
     19 C           3.5765   -0.3109   -0.1122 C.ar    1  UNL1        0.0251
     20 C          -3.9045   -0.0260   -0.2257 C.ar    1  UNL1        0.0445
     21 C          -4.9808   -0.9226   -0.2580 C.ar    1  UNL1        0.0389
     22 N          -6.3256   -0.6325   -0.2744 N.ar    1  UNL1       -0.2603
     23 C          -6.7581    0.6607   -0.2592 C.ar    1  UNL1        0.0557
     24 C          -5.7904    1.6833   -0.2265 C.ar    1  UNL1        0.1185
     25 N          -6.0270    3.0048   -0.2077 N.ar    1  UNL1       -0.1892
     26 S          -4.5452    3.7474   -0.1716 S.2     1  UNL1        0.1165
     27 N          -3.5363    2.4293   -0.1781 N.ar    1  UNL1       -0.1900
     28 C          -4.3224    1.3328   -0.2092 C.ar    1  UNL1        0.1119
     29 H          -2.4295   -2.6281   -0.2467 H       1  UNL1        0.0645
     30 H          -1.5832    1.4874   -0.1632 H       1  UNL1        0.1659
     31 H           1.2009    1.4272   -0.1202 H       1  UNL1        0.0645
     32 H           0.4230   -3.4635   -0.2158 H       1  UNL1        0.0635
     33 H           6.3406   -2.3557   -0.1032 H       1  UNL1        0.0629
     34 H           7.5661   -0.1665   -0.0465 H       1  UNL1        0.0640
     35 H          -4.7887   -1.9954   -0.2733 H       1  UNL1        0.0837
     36 H          -7.8252    0.8384   -0.2731 H       1  UNL1        0.0852
@<TRIPOS>BOND
     1     1     2   ar
     2     2     3   ar
     3     3     4   ar
     4     4     5   ar
     5     5     6   ar
     6     6     7   ar
     7     7     8   ar
     8     8     9   ar
     9     7    10   ar
    10    10    11   ar
    11    11    12   ar
    12    12    13   ar
    13    13    14   ar
    14    14    15   ar
    15    15    16   ar
    16    16    17   ar
    17    17    18   ar
    18    18    19   ar
    19     2    20    1
    20    20    21   ar
    21    21    22   ar
    22    22    23   ar
    23    23    24   ar
    24    24    25   ar
    25    25    26   ar
    26    26    27   ar
    27    27    28   ar
    28     9     1   ar
    29    19    11   ar
    30    28    20   ar
    31     9     4   ar
    32    18    14   ar
    33    28    24   ar
    34    19     6   ar
    35     1    29    1
    36     3    30    1
    37     5    31    1
    38     8    32    1
    39    12    33    1
    40    13    34    1
    41    21    35    1
    42    23    36    1
