@<TRIPOS>MOLECULE
*****
 34 39 0 0 0
SMALL
GASTEIGER

@<TRIPOS>ATOM
      1 C          -0.7153    1.4855   -0.0455 C.3     1  UNL1        0.0028
      2 C          -1.7664    0.3049   -0.0909 C.2     1  UNL1       -0.0237
      3 C          -1.1382   -0.9057   -0.0037 C.2     1  UNL1       -0.0334
      4 C           0.2299   -0.6233    0.0947 C.ar    1  UNL1        0.0456
      5 N           1.3373   -1.3867    0.2057 N.ar    1  UNL1       -0.3515
      6 C           2.3878   -0.4882    0.2602 C.ar    1  UNL1        0.0913
      7 C           1.9054    0.8002    0.1818 C.ar    1  UNL1        0.0710
      8 N           2.9607    1.6721    0.2376 N.ar    1  UNL1       -0.3514
      9 C           4.1216    0.9358    0.3522 C.ar    1  UNL1        0.0675
     10 C           5.4584    1.3222    0.4456 C.ar    1  UNL1       -0.0348
     11 C           6.3860    0.2837    0.5514 C.ar    1  UNL1       -0.0416
     12 C           5.9460   -1.0380    0.5581 C.ar    1  UNL1        0.0285
     13 N           4.6583   -1.4421    0.4692 N.ar    1  UNL1       -0.2514
     14 C           3.7888   -0.4170    0.3684 C.ar    1  UNL1        0.1123
     15 C           0.5179    0.7074    0.0756 C.ar    1  UNL1        0.0056
     16 C          -3.1779    0.4370   -0.2053 C.ar    1  UNL1        0.0585
     17 S          -3.9730    1.9884   -0.3134 S.2     1  UNL1       -0.0926
     18 C          -5.5650    1.3029   -0.4176 C.ar    1  UNL1       -0.0129
     19 C          -5.4333   -0.0378   -0.3678 C.ar    1  UNL1        0.0278
     20 C          -6.2290   -1.1922   -0.3960 C.ar    1  UNL1       -0.0156
     21 C          -5.3229   -2.2539   -0.2940 C.ar    1  UNL1        0.0932
     22 O          -4.0001   -1.8642   -0.2020 O.2     1  UNL1       -0.4618
     23 C          -4.1459   -0.5084   -0.2532 C.ar    1  UNL1        0.1492
     24 H          -0.7487    2.0672   -0.9712 H       1  UNL1        0.0363
     25 H          -0.8895    2.1237    0.8256 H       1  UNL1        0.0363
     26 H          -1.5720   -1.8937   -0.0066 H       1  UNL1        0.0641
     27 H           1.4502   -2.3924    0.2462 H       1  UNL1        0.1660
     28 H           2.8660    2.6778    0.1987 H       1  UNL1        0.1660
     29 H           5.7630    2.3620    0.4371 H       1  UNL1        0.0639
     30 H           7.4463    0.5020    0.6282 H       1  UNL1        0.0633
     31 H           6.6656   -1.8492    0.6404 H       1  UNL1        0.0830
     32 H          -6.4449    1.9240   -0.5047 H       1  UNL1        0.0701
     33 H          -7.3028   -1.2775   -0.4775 H       1  UNL1        0.0655
     34 H          -5.4644   -3.3266   -0.2735 H       1  UNL1        0.1030
@<TRIPOS>BOND
     1     1     2    1
     2     2     3    2
     3     3     4    1
     4     4     5   ar
     5     5     6   ar
     6     6     7   ar
     7     7     8   ar
     8     8     9   ar
     9     9    10   ar
    10    10    11   ar
    11    11    12   ar
    12    12    13   ar
    13    13    14   ar
    14     7    15   ar
    15     2    16    1
    16    16    17   ar
    17    17    18   ar
    18    18    19   ar
    19    19    20   ar
    20    20    21   ar
    21    21    22   ar
    22    22    23   ar
    23    15     1    1
    24    23    16   ar
    25    15     4   ar
    26    23    19   ar
    27    14     6   ar
    28    14     9   ar
    29     1    24    1
    30     1    25    1
    31     3    26    1
    32     5    27    1
    33     8    28    1
    34    10    29    1
    35    11    30    1
    36    12    31    1
    37    18    32    1
    38    20    33    1
    39    21    34    1
