@<TRIPOS>MOLECULE
*****
 38 43 0 0 0
SMALL
GASTEIGER

@<TRIPOS>ATOM
      1 C           2.7087   -1.2430   -0.0480 C.3     1  UNL1        0.0000
      2 C           3.3500    0.1646    0.0752 C.2     1  UNL1        0.0000
      3 C           2.4230    1.1608    0.1031 C.2     1  UNL1        0.0000
      4 C           1.1902    0.5065    0.0057 C.ar    1  UNL1        0.0000
      5 N          -0.0997    0.9332   -0.0206 N.ar    1  UNL1        0.0000
      6 C          -0.8648   -0.2039   -0.1308 C.ar    1  UNL1        0.0000
      7 C          -0.0160   -1.3056   -0.1693 C.ar    1  UNL1        0.0000
      8 SI         -1.0728   -2.8205   -0.3177 Si      1  UNL1        0.0000
      9 C          -2.6140   -1.6535   -0.3046 C.ar    1  UNL1        0.0000
     10 C          -3.9723   -2.1638   -0.3977 C.ar    1  UNL1        0.0000
     11 C          -5.0188   -1.3153   -0.3850 C.ar    1  UNL1        0.0000
     12 C          -4.7757    0.1143   -0.2774 C.ar    1  UNL1        0.0000
     13 C          -5.7420    1.0510   -0.2554 C.2     1  UNL1        0.0000
     14 SI         -5.0056    2.7581   -0.1077 Si      1  UNL1        0.0000
     15 C          -3.3008    1.9763   -0.0875 C.2     1  UNL1        0.0000
     16 C          -3.3788    0.6334   -0.1821 C.ar    1  UNL1        0.0000
     17 C          -2.2815   -0.3292   -0.2003 C.ar    1  UNL1        0.0000
     18 C           1.2787   -0.8600   -0.0834 C.ar    1  UNL1        0.0000
     19 C           4.7975    0.3126    0.1473 C.ar    1  UNL1        0.0000
     20 N           5.2902    1.5500    0.2526 N.ar    1  UNL1        0.0000
     21 C           6.6174    1.6104    0.3136 C.ar    1  UNL1        0.0000
     22 N           7.4521    0.5750    0.2789 N.ar    1  UNL1        0.0000
     23 C           6.8425   -0.6025    0.1727 C.ar    1  UNL1        0.0000
     24 N           5.5290   -0.8031    0.1027 N.ar    1  UNL1        0.0000
     25 H           3.0157   -1.7407   -0.9728 H       1  UNL1        0.0000
     26 H           2.9387   -1.8628    0.8238 H       1  UNL1        0.0000
     27 H           2.5980    2.2230    0.1829 H       1  UNL1        0.0000
     28 H          -0.4262    1.8868    0.0302 H       1  UNL1        0.0000
     29 H          -1.0665   -3.7077    0.8755 H       1  UNL1        0.0000
     30 H          -0.9594   -3.5384   -1.6148 H       1  UNL1        0.0000
     31 H          -4.1379   -3.2336   -0.4775 H       1  UNL1        0.0000
     32 H          -6.0383   -1.6777   -0.4535 H       1  UNL1        0.0000
     33 H          -6.8071    0.8944   -0.3118 H       1  UNL1        0.0000
     34 H          -5.2270    3.5847   -1.3186 H       1  UNL1        0.0000
     35 H          -5.3346    3.4149    1.1803 H       1  UNL1        0.0000
     36 H          -2.4284    2.5975   -0.0077 H       1  UNL1        0.0000
     37 H           7.0607    2.5966    0.3997 H       1  UNL1        0.0000
     38 H           7.4759   -1.4825    0.1399 H       1  UNL1        0.0000
@<TRIPOS>BOND
     1     1     2    1
     2     2     3    2
     3     3     4    1
     4     4     5   ar
     5     5     6   ar
     6     6     7   ar
     7     7     8    1
     8     8     9    1
     9     9    10   ar
    10    10    11   ar
    11    11    12   ar
    12    12    13    2
    13    13    14    1
    14    14    15    1
    15    15    16    2
    16    16    17   ar
    17     7    18   ar
    18     2    19    1
    19    19    20   ar
    20    20    21   ar
    21    21    22   ar
    22    22    23   ar
    23    23    24   ar
    24    18     1    1
    25    24    19   ar
    26    18     4   ar
    27     6    17    1
    28    17     9   ar
    29    16    12   ar
    30     1    25    1
    31     1    26    1
    32     3    27    1
    33     5    28    1
    34     8    29    1
    35     8    30    1
    36    10    31    1
    37    11    32    1
    38    13    33    1
    39    14    34    1
    40    14    35    1
    41    15    36    1
    42    21    37    1
    43    23    38    1
