@<TRIPOS>MOLECULE
*****
 40 45 0 0 0
SMALL
GASTEIGER

@<TRIPOS>ATOM
      1 C           2.2179   -0.4343    0.1584 C.3     1  UNL1        0.0037
      2 C           3.0748    0.7973   -0.2314 C.2     1  UNL1        0.0031
      3 C           2.3145    1.8445   -0.6497 C.2     1  UNL1       -0.0311
      4 C           0.9987    1.3833   -0.5617 C.ar    1  UNL1        0.0442
      5 N          -0.2040    1.9205   -0.8236 N.ar    1  UNL1       -0.3539
      6 C          -1.1747    0.9568   -0.5360 C.ar    1  UNL1        0.0556
      7 C          -0.5130   -0.2058   -0.0823 C.ar    1  UNL1        0.0120
      8 C           0.8618    0.1060   -0.1135 C.ar    1  UNL1       -0.0100
      9 C          -1.2879   -1.3415    0.2781 C.ar    1  UNL1       -0.0078
     10 C          -0.6230   -2.5034    0.7317 C.ar    1  UNL1       -0.0534
     11 C          -1.3389   -3.6398    1.0958 C.ar    1  UNL1       -0.0611
     12 C          -2.7226   -3.6316    1.0122 C.ar    1  UNL1       -0.0611
     13 C          -3.3911   -2.4867    0.5645 C.ar    1  UNL1       -0.0534
     14 C          -2.7061   -1.3048    0.1823 C.ar    1  UNL1       -0.0095
     15 C          -3.3576   -0.1133   -0.2811 C.ar    1  UNL1       -0.0082
     16 C          -4.7629    0.0251   -0.4124 C.ar    1  UNL1       -0.0534
     17 C          -5.3635    1.2045   -0.8686 C.ar    1  UNL1       -0.0611
     18 C          -4.5807    2.2965   -1.2129 C.ar    1  UNL1       -0.0611
     19 C          -3.1964    2.2115   -1.1019 C.ar    1  UNL1       -0.0520
     20 C          -2.5857    1.0225   -0.6417 C.ar    1  UNL1        0.0066
     21 C           4.5272    0.7508   -0.1302 C.ar    1  UNL1        0.1594
     22 N           5.0728   -0.3859    0.3075 N.ar    1  UNL1       -0.2163
     23 C           6.4014   -0.3662    0.3779 C.ar    1  UNL1        0.1200
     24 N           7.1889    0.6572    0.0584 N.ar    1  UNL1       -0.2241
     25 C           6.5284    1.7320   -0.3640 C.ar    1  UNL1        0.1200
     26 N           5.2084    1.8451   -0.4813 N.ar    1  UNL1       -0.2163
     27 H           2.4442   -1.2935   -0.4802 H       1  UNL1        0.0363
     28 H           2.3454   -0.6882    1.2151 H       1  UNL1        0.0363
     29 H           2.6524    2.8164   -0.9770 H       1  UNL1        0.0642
     30 H          -0.3885    2.8518   -1.1669 H       1  UNL1        0.1659
     31 H           0.4599   -2.5334    0.8055 H       1  UNL1        0.0624
     32 H          -0.8159   -4.5264    1.4429 H       1  UNL1        0.0618
     33 H          -3.2906   -4.5143    1.2943 H       1  UNL1        0.0618
     34 H          -4.4750   -2.5410    0.5207 H       1  UNL1        0.0624
     35 H          -5.4289   -0.7944   -0.1586 H       1  UNL1        0.0624
     36 H          -6.4458    1.2622   -0.9522 H       1  UNL1        0.0618
     37 H          -5.0459    3.2123   -1.5670 H       1  UNL1        0.0618
     38 H          -2.6081    3.0807   -1.3780 H       1  UNL1        0.0624
     39 H           6.8882   -1.2698    0.7290 H       1  UNL1        0.1048
     40 H           7.1219    2.5974   -0.6384 H       1  UNL1        0.1048
@<TRIPOS>BOND
     1     1     2    1
     2     2     3    2
     3     3     4    1
     4     4     5   ar
     5     5     6   ar
     6     6     7   ar
     7     7     8   ar
     8     7     9   ar
     9     9    10   ar
    10    10    11   ar
    11    11    12   ar
    12    12    13   ar
    13    13    14   ar
    14    14    15   ar
    15    15    16   ar
    16    16    17   ar
    17    17    18   ar
    18    18    19   ar
    19    19    20   ar
    20     2    21    1
    21    21    22   ar
    22    22    23   ar
    23    23    24   ar
    24    24    25   ar
    25    25    26   ar
    26     8     1    1
    27    14     9   ar
    28    20    15   ar
    29    26    21   ar
    30     8     4   ar
    31    20     6   ar
    32     1    27    1
    33     1    28    1
    34     3    29    1
    35     5    30    1
    36    10    31    1
    37    11    32    1
    38    12    33    1
    39    13    34    1
    40    16    35    1
    41    17    36    1
    42    18    37    1
    43    19    38    1
    44    23    39    1
    45    25    40    1
