@<TRIPOS>MOLECULE
*****
 43 49 0 0 0
SMALL
GASTEIGER

@<TRIPOS>ATOM
      1 C           2.0885    1.1279   -0.0723 C.3     1  UNL1        0.0005
      2 C           2.8036   -0.2672   -0.0710 C.2     1  UNL1       -0.0318
      3 C           1.8986   -1.2871   -0.0193 C.2     1  UNL1       -0.0340
      4 C           0.6419   -0.6744    0.0135 C.ar    1  UNL1        0.0438
      5 N          -0.6318   -1.1423    0.0676 N.ar    1  UNL1       -0.3541
      6 C          -1.4192   -0.0261    0.0740 C.ar    1  UNL1        0.0516
      7 C          -0.6427    1.1204    0.0245 C.ar    1  UNL1       -0.0137
      8 C          -1.4358    2.3788    0.0283 C.3     1  UNL1        0.0005
      9 C          -2.8322    1.7344    0.0900 C.ar    1  UNL1       -0.0333
     10 C          -4.0335    2.4196    0.1191 C.ar    1  UNL1       -0.0570
     11 C          -5.2153    1.6758    0.1751 C.ar    1  UNL1       -0.0537
     12 C          -5.2096    0.2602    0.2022 C.ar    1  UNL1       -0.0172
     13 C          -6.4183   -0.4525    0.2584 C.ar    1  UNL1       -0.0540
     14 C          -6.4320   -1.8476    0.2858 C.ar    1  UNL1       -0.0612
     15 C          -5.2353   -2.5540    0.2572 C.ar    1  UNL1       -0.0611
     16 C          -4.0217   -1.8666    0.2012 C.ar    1  UNL1       -0.0534
     17 C          -3.9843   -0.4556    0.1727 C.ar    1  UNL1       -0.0085
     18 C          -2.8133    0.3082    0.1168 C.ar    1  UNL1        0.0098
     19 C           0.6753    0.6946   -0.0139 C.ar    1  UNL1       -0.0143
     20 C           4.2675   -0.4147   -0.1202 C.ar    1  UNL1        0.0067
     21 C           4.9196   -1.6756   -0.1201 C.ar    1  UNL1       -0.0521
     22 C           6.3240   -1.8533   -0.1667 C.ar    1  UNL1       -0.0590
     23 C           7.2264   -0.7844   -0.2185 C.ar    1  UNL1       -0.0335
     24 C           6.6555    0.5081   -0.2221 C.ar    1  UNL1        0.1005
     25 N           7.3518    1.6543   -0.2680 N.ar    1  UNL1       -0.1908
     26 S           6.2390    2.8805   -0.2511 S.2     1  UNL1        0.1165
     27 N           4.8282    2.0180   -0.1852 N.ar    1  UNL1       -0.1902
     28 C           5.1504    0.7109   -0.1724 C.ar    1  UNL1        0.1072
     29 H           2.3535    1.7132    0.8131 H       1  UNL1        0.0362
     30 H           2.2895    1.6786   -0.9959 H       1  UNL1        0.0362
     31 H           2.0762   -2.3503   -0.0052 H       1  UNL1        0.0641
     32 H          -0.9293   -2.1070    0.0966 H       1  UNL1        0.1659
     33 H          -1.2441    2.9837    0.9180 H       1  UNL1        0.0362
     34 H          -1.3081    2.9489   -0.8951 H       1  UNL1        0.0362
     35 H          -4.0633    3.5040    0.0993 H       1  UNL1        0.0621
     36 H          -6.1624    2.2127    0.1982 H       1  UNL1        0.0624
     37 H          -7.3675    0.0788    0.2816 H       1  UNL1        0.0624
     38 H          -7.3784   -2.3800    0.3294 H       1  UNL1        0.0618
     39 H          -5.2445   -3.6405    0.2785 H       1  UNL1        0.0618
     40 H          -3.1060   -2.4456    0.1801 H       1  UNL1        0.0624
     41 H           4.3207   -2.5855   -0.0820 H       1  UNL1        0.0624
     42 H           6.7195   -2.8696   -0.1620 H       1  UNL1        0.0618
     43 H           8.2990   -0.9314   -0.2539 H       1  UNL1        0.0640
@<TRIPOS>BOND
     1     1     2    1
     2     2     3    2
     3     3     4    1
     4     4     5   ar
     5     5     6   ar
     6     6     7   ar
     7     7     8    1
     8     8     9    1
     9     9    10   ar
    10    10    11   ar
    11    11    12   ar
    12    12    13   ar
    13    13    14   ar
    14    14    15   ar
    15    15    16   ar
    16    16    17   ar
    17    17    18   ar
    18     7    19   ar
    19     2    20    1
    20    20    21   ar
    21    21    22   ar
    22    22    23   ar
    23    23    24   ar
    24    24    25   ar
    25    25    26   ar
    26    26    27   ar
    27    27    28   ar
    28    19     1    1
    29    28    20   ar
    30    19     4   ar
    31    28    24   ar
    32     6    18    1
    33    18     9   ar
    34    17    12   ar
    35     1    29    1
    36     1    30    1
    37     3    31    1
    38     5    32    1
    39     8    33    1
    40     8    34    1
    41    10    35    1
    42    11    36    1
    43    13    37    1
    44    14    38    1
    45    15    39    1
    46    16    40    1
    47    21    41    1
    48    22    42    1
    49    23    43    1
