@<TRIPOS>MOLECULE
*****
 38 43 0 0 0
SMALL
GASTEIGER

@<TRIPOS>ATOM
      1 SI          3.1769    1.9093   -0.2893 Si      1  UNL1        0.0000
      2 C           3.7656    0.0689   -0.0116 C.2     1  UNL1        0.0000
      3 C           2.7094   -0.7775    0.1078 C.2     1  UNL1        0.0000
      4 C           1.4963   -0.0658   -0.0076 C.ar    1  UNL1        0.0000
      5 N           0.2218   -0.5283    0.0804 N.ar    1  UNL1        0.0000
      6 C          -0.6702    0.5308   -0.1004 C.ar    1  UNL1        0.0000
      7 C           0.1232    1.6899   -0.2431 C.ar    1  UNL1        0.0000
      8 N          -0.3710    2.9358   -0.3763 N.ar    1  UNL1        0.0000
      9 C          -1.7129    3.0057   -0.3299 C.ar    1  UNL1        0.0000
     10 C          -2.5969    1.9335   -0.1983 C.ar    1  UNL1        0.0000
     11 C          -3.9707    2.1778   -0.1450 C.ar    1  UNL1        0.0000
     12 C          -4.8744    1.1288   -0.0140 C.ar    1  UNL1        0.0000
     13 C          -4.4383   -0.1978    0.0307 C.ar    1  UNL1        0.0000
     14 C          -5.4000   -1.2175    0.1352 C.ar    1  UNL1        0.0000
     15 C          -5.0308   -2.5576    0.1447 C.ar    1  UNL1        0.0000
     16 C          -3.6924   -2.8913    0.0333 C.ar    1  UNL1        0.0000
     17 C          -2.7264   -1.8831   -0.0655 C.ar    1  UNL1        0.0000
     18 C          -3.0516   -0.5017   -0.0431 C.ar    1  UNL1        0.0000
     19 C          -2.1065    0.6019   -0.1157 C.ar    1  UNL1        0.0000
     20 C           1.4409    1.2847   -0.2074 C.ar    1  UNL1        0.0000
     21 C           5.1177   -0.3562    0.0624 C.ar    1  UNL1        0.0000
     22 N           5.4971   -1.6107    0.2564 N.ar    1  UNL1        0.0000
     23 C           6.8715   -1.7227    0.2826 C.ar    1  UNL1        0.0000
     24 C           7.5621   -0.5485    0.1077 C.ar    1  UNL1        0.0000
     25 S           6.4592    0.7391   -0.0964 S.2     1  UNL1        0.0000
     26 H           3.6174    2.3889   -1.6266 H       1  UNL1        0.0000
     27 H           3.6027    2.7582    0.8555 H       1  UNL1        0.0000
     28 H           2.7855   -1.8463    0.2691 H       1  UNL1        0.0000
     29 H          -0.0248   -1.4795    0.2985 H       1  UNL1        0.0000
     30 H          -2.0907    4.0237   -0.4078 H       1  UNL1        0.0000
     31 H          -4.3576    3.1938   -0.1962 H       1  UNL1        0.0000
     32 H          -5.9363    1.3634    0.0351 H       1  UNL1        0.0000
     33 H          -6.4585   -0.9723    0.2021 H       1  UNL1        0.0000
     34 H          -5.7871   -3.3337    0.2207 H       1  UNL1        0.0000
     35 H          -3.3919   -3.9358    0.0111 H       1  UNL1        0.0000
     36 H          -1.7095   -2.2200   -0.2020 H       1  UNL1        0.0000
     37 H           7.3206   -2.6965    0.4343 H       1  UNL1        0.0000
     38 H           8.6307   -0.3917    0.0907 H       1  UNL1        0.0000
@<TRIPOS>BOND
     1     1     2    1
     2     2     3    2
     3     3     4    1
     4     4     5   ar
     5     5     6   ar
     6     6     7   ar
     7     7     8   ar
     8     8     9   ar
     9     9    10   ar
    10    10    11   ar
    11    11    12   ar
    12    12    13   ar
    13    13    14   ar
    14    14    15   ar
    15    15    16   ar
    16    16    17   ar
    17    17    18   ar
    18    18    19   ar
    19     7    20   ar
    20     2    21    1
    21    21    22   ar
    22    22    23   ar
    23    23    24   ar
    24    24    25   ar
    25    20     1    1
    26    25    21   ar
    27    20     4   ar
    28    19     6   ar
    29    19    10   ar
    30    18    13   ar
    31     1    26    1
    32     1    27    1
    33     3    28    1
    34     5    29    1
    35     9    30    1
    36    11    31    1
    37    12    32    1
    38    14    33    1
    39    15    34    1
    40    16    35    1
    41    17    36    1
    42    23    37    1
    43    24    38    1
