@<TRIPOS>MOLECULE
*****
 36 40 0 0 0
SMALL
GASTEIGER

@<TRIPOS>ATOM
      1 SI         -0.7769    1.7615    0.6812 Si      1  UNL1        0.0000
      2 C           0.5419    0.3913    0.8440 C.2     1  UNL1        0.0000
      3 C          -0.0469   -0.8174    0.9649 C.2     1  UNL1        0.0000
      4 C          -1.5047   -0.8125    0.9313 C.2     1  UNL1        0.0000
      5 C          -2.0751    0.4010    0.7916 C.2     1  UNL1        0.0000
      6 C          -3.4597    0.6394    0.7367 C.ar    1  UNL1        0.0000
      7 S          -4.3226    1.6932    1.8200 S.2     1  UNL1        0.0000
      8 C          -5.8659    1.3734    1.0874 C.ar    1  UNL1        0.0000
      9 C          -5.6627    0.5076    0.0750 C.ar    1  UNL1        0.0000
     10 C          -6.3656   -0.1860   -0.9396 C.ar    1  UNL1        0.0000
     11 C          -5.4142   -0.9402   -1.6593 C.ar    1  UNL1        0.0000
     12 N          -4.1282   -0.7629   -1.1526 N.ar    1  UNL1        0.0000
     13 C          -4.3603    0.1052   -0.1222 C.ar    1  UNL1        0.0000
     14 C           1.9291    0.6545    0.8673 C.ar    1  UNL1        0.0000
     15 C           2.6912    1.7448    1.2410 C.ar    1  UNL1        0.0000
     16 C           4.0537    1.4217    1.0243 C.ar    1  UNL1        0.0000
     17 C           4.1130    0.1393    0.5123 C.ar    1  UNL1        0.0000
     18 N           2.8124   -0.3064    0.4243 N.ar    1  UNL1        0.0000
     19 C           5.2423   -0.6578    0.1178 C.ar    1  UNL1        0.0000
     20 C           5.2633   -1.9480   -0.3860 C.ar    1  UNL1        0.0000
     21 N           6.5077   -2.4731   -0.6840 N.ar    1  UNL1        0.0000
     22 C           7.4257   -1.5766   -0.4030 C.ar    1  UNL1        0.0000
     23 S           6.8626   -0.0849    0.2201 S.2     1  UNL1        0.0000
     24 H          -0.7736    2.6799    1.8505 H       1  UNL1        0.0000
     25 H          -0.7411    2.4052   -0.6587 H       1  UNL1        0.0000
     26 H           0.4768   -1.7538    1.1111 H       1  UNL1        0.0000
     27 H          -2.0571   -1.7390    1.0384 H       1  UNL1        0.0000
     28 H          -6.7723    1.8373    1.4480 H       1  UNL1        0.0000
     29 H          -7.4271   -0.1572   -1.1472 H       1  UNL1        0.0000
     30 H          -5.5560   -1.5969   -2.5081 H       1  UNL1        0.0000
     31 H          -3.2399   -1.1499   -1.4467 H       1  UNL1        0.0000
     32 H           2.3183    2.6794    1.6407 H       1  UNL1        0.0000
     33 H           4.8984    2.0686    1.2248 H       1  UNL1        0.0000
     34 H           2.5384   -1.2085    0.0645 H       1  UNL1        0.0000
     35 H           4.3943   -2.5687   -0.5623 H       1  UNL1        0.0000
     36 H           8.4807   -1.7635   -0.5545 H       1  UNL1        0.0000
@<TRIPOS>BOND
     1     1     2    1
     2     2     3    2
     3     3     4    1
     4     4     5    2
     5     5     6    1
     6     6     7   ar
     7     7     8   ar
     8     8     9   ar
     9     9    10   ar
    10    10    11   ar
    11    11    12   ar
    12    12    13   ar
    13     2    14    1
    14    14    15   ar
    15    15    16   ar
    16    16    17   ar
    17    17    18   ar
    18    17    19    1
    19    19    20   ar
    20    20    21   ar
    21    21    22   ar
    22    22    23   ar
    23     5     1    1
    24    13     6   ar
    25    18    14   ar
    26    23    19   ar
    27    13     9   ar
    28     1    24    1
    29     1    25    1
    30     3    26    1
    31     4    27    1
    32     8    28    1
    33    10    29    1
    34    11    30    1
    35    12    31    1
    36    15    32    1
    37    16    33    1
    38    18    34    1
    39    20    35    1
    40    22    36    1
