@<TRIPOS>MOLECULE
*****
 32 36 0 0 0
SMALL
GASTEIGER

@<TRIPOS>ATOM
      1 C          -1.0062   -0.9129   -0.3544 C.3     1  UNL1        0.0009
      2 C          -1.8067    0.2207    0.3720 C.2     1  UNL1       -0.0324
      3 C          -0.9885    1.2408    0.7562 C.2     1  UNL1       -0.0340
      4 C           0.2911    0.8651    0.3373 C.ar    1  UNL1        0.0441
      5 N           1.5132    1.4343    0.4171 N.ar    1  UNL1       -0.3534
      6 C           2.3701    0.5494   -0.1911 C.ar    1  UNL1        0.0646
      7 C           1.6929   -0.5735   -0.6529 C.ar    1  UNL1        0.0229
      8 C           2.4388   -1.5661   -1.2973 C.ar    1  UNL1        0.0377
      9 N           3.7831   -1.4985   -1.4985 N.ar    1  UNL1       -0.2537
     10 C           4.4833   -0.4175   -1.0624 C.ar    1  UNL1        0.0800
     11 C           5.8835   -0.1879   -1.1895 C.ar    1  UNL1       -0.0286
     12 C           6.2701    1.0175   -0.6339 C.ar    1  UNL1       -0.0216
     13 S           4.9379    1.8698    0.0409 S.2     1  UNL1       -0.0930
     14 C           3.8855    0.6375   -0.4117 C.ar    1  UNL1        0.0614
     15 C           0.3579   -0.3428   -0.2991 C.ar    1  UNL1       -0.0092
     16 C          -3.2612    0.1240    0.5771 C.ar    1  UNL1       -0.0034
     17 C          -3.9956    1.1287    1.2187 C.ar    1  UNL1       -0.0514
     18 C          -5.3742    0.9989    1.3933 C.ar    1  UNL1       -0.0430
     19 C          -5.9933   -0.1423    0.9184 C.ar    1  UNL1        0.0276
     20 N          -5.3352   -1.1384    0.2945 N.ar    1  UNL1       -0.2627
     21 C          -3.9959   -0.9803    0.1412 C.ar    1  UNL1        0.0350
     22 H          -1.3475   -1.0374   -1.3865 H       1  UNL1        0.0362
     23 H          -1.0693   -1.8559    0.1970 H       1  UNL1        0.0362
     24 H          -1.2429    2.1529    1.2727 H       1  UNL1        0.0641
     25 H           1.7637    2.3224    0.8324 H       1  UNL1        0.1659
     26 H           1.9652   -2.4656   -1.6794 H       1  UNL1        0.0836
     27 H           6.5669   -0.8777   -1.6663 H       1  UNL1        0.0644
     28 H           7.2648    1.4395   -0.5904 H       1  UNL1        0.0694
     29 H          -3.5144    2.0271    1.5933 H       1  UNL1        0.0624
     30 H          -5.9487    1.7733    1.8892 H       1  UNL1        0.0633
     31 H          -7.0635   -0.2895    1.0302 H       1  UNL1        0.0829
     32 H          -3.5249   -1.8162   -0.3680 H       1  UNL1        0.0835
@<TRIPOS>BOND
     1     1     2    1
     2     2     3    2
     3     3     4    1
     4     4     5   ar
     5     5     6   ar
     6     6     7   ar
     7     7     8   ar
     8     8     9   ar
     9     9    10   ar
    10    10    11   ar
    11    11    12   ar
    12    12    13   ar
    13    13    14   ar
    14     7    15   ar
    15     2    16    1
    16    16    17   ar
    17    17    18   ar
    18    18    19   ar
    19    19    20   ar
    20    20    21   ar
    21    15     1    1
    22    21    16   ar
    23    15     4   ar
    24    14     6   ar
    25    14    10   ar
    26     1    22    1
    27     1    23    1
    28     3    24    1
    29     5    25    1
    30     8    26    1
    31    11    27    1
    32    12    28    1
    33    17    29    1
    34    18    30    1
    35    19    31    1
    36    21    32    1
