@<TRIPOS>MOLECULE
*****
 35 39 0 0 0
SMALL
GASTEIGER

@<TRIPOS>ATOM
      1 C          -1.3172    1.0267   -0.4124 C.3     1  UNL1        0.0000
      2 C          -2.1906   -0.1624    0.0803 C.2     1  UNL1        0.0000
      3 C          -1.4296   -1.1910    0.5460 C.2     1  UNL1        0.0000
      4 C          -0.1085   -0.7622    0.3946 C.ar    1  UNL1        0.0000
      5 N           1.0926   -1.3080    0.6625 N.ar    1  UNL1        0.0000
      6 C           2.0617   -0.3815    0.2862 C.ar    1  UNL1        0.0000
      7 C           3.4549   -0.4209    0.3396 C.ar    1  UNL1        0.0000
      8 SI          4.5626   -1.7633    0.9504 Si      1  UNL1        0.0000
      9 C           6.0294   -0.6687    0.5142 C.2     1  UNL1        0.0000
     10 C           5.6616    0.5162   -0.0090 C.2     1  UNL1        0.0000
     11 C           4.2020    0.6880   -0.1216 C.ar    1  UNL1        0.0000
     12 C           3.5700    1.8147   -0.6264 C.ar    1  UNL1        0.0000
     13 C           2.1687    1.8595   -0.6824 C.ar    1  UNL1        0.0000
     14 C           1.4026    0.7632   -0.2272 C.ar    1  UNL1        0.0000
     15 C           0.0328    0.4817   -0.1409 C.ar    1  UNL1        0.0000
     16 C          -3.6551   -0.1432    0.0337 C.ar    1  UNL1        0.0000
     17 C          -4.3677    0.9478   -0.4579 C.ar    1  UNL1        0.0000
     18 C          -5.7612    0.8985   -0.4729 C.ar    1  UNL1        0.0000
     19 C          -6.4084   -0.2340    0.0013 C.ar    1  UNL1        0.0000
     20 C          -5.6308   -1.2753    0.4731 C.ar    1  UNL1        0.0000
     21 N          -4.2802   -1.2538    0.4990 N.ar    1  UNL1        0.0000
     22 H          -1.5104    1.9302    0.1736 H       1  UNL1        0.0000
     23 H          -1.4673    1.2134   -1.4800 H       1  UNL1        0.0000
     24 H          -1.7754   -2.1331    0.9453 H       1  UNL1        0.0000
     25 H           1.2670   -2.2194    1.0621 H       1  UNL1        0.0000
     26 H           4.4520   -2.0025    2.4115 H       1  UNL1        0.0000
     27 H           4.5118   -2.9947    0.1225 H       1  UNL1        0.0000
     28 H           7.0399   -1.0053    0.6865 H       1  UNL1        0.0000
     29 H           6.3479    1.2895   -0.3263 H       1  UNL1        0.0000
     30 H           4.1481    2.6635   -0.9793 H       1  UNL1        0.0000
     31 H           1.6724    2.7411   -1.0775 H       1  UNL1        0.0000
     32 H          -3.8665    1.8343   -0.8293 H       1  UNL1        0.0000
     33 H          -6.3343    1.7396   -0.8526 H       1  UNL1        0.0000
     34 H          -7.4901   -0.3040    0.0035 H       1  UNL1        0.0000
     35 H          -6.0849   -2.1848    0.8557 H       1  UNL1        0.0000
@<TRIPOS>BOND
     1     1     2    1
     2     2     3    2
     3     3     4    1
     4     4     5   ar
     5     5     6   ar
     6     6     7   ar
     7     7     8    1
     8     8     9    1
     9     9    10    2
    10    10    11    1
    11    11    12   ar
    12    12    13   ar
    13    13    14   ar
    14    14    15   ar
    15     2    16    1
    16    16    17   ar
    17    17    18   ar
    18    18    19   ar
    19    19    20   ar
    20    20    21   ar
    21    15     1    1
    22    21    16   ar
    23    15     4   ar
    24    14     6   ar
    25    11     7   ar
    26     1    22    1
    27     1    23    1
    28     3    24    1
    29     5    25    1
    30     8    26    1
    31     8    27    1
    32     9    28    1
    33    10    29    1
    34    12    30    1
    35    13    31    1
    36    17    32    1
    37    18    33    1
    38    19    34    1
    39    20    35    1
