@<TRIPOS>MOLECULE
*****
 36 41 0 0 0
SMALL
GASTEIGER

@<TRIPOS>ATOM
      1 C          -0.2826   -0.4602    1.3404 C.3     1  UNL1        0.0000
      2 C          -1.2741   -0.2965    0.1380 C.2     1  UNL1        0.0000
      3 C          -0.6298   -0.0038   -1.0280 C.2     1  UNL1        0.0000
      4 C           0.7273    0.0589   -0.6887 C.ar    1  UNL1        0.0000
      5 N           1.8632    0.3092   -1.3835 N.ar    1  UNL1        0.0000
      6 C           2.8865    0.2168   -0.4532 C.ar    1  UNL1        0.0000
      7 C           4.2568    0.3085   -0.2621 C.ar    1  UNL1        0.0000
      8 SI          5.8734    0.6294   -1.0730 Si      1  UNL1        0.0000
      9 C           6.7089    0.3570    0.6378 C.2     1  UNL1        0.0000
     10 C           5.8025    0.0727    1.5991 C.2     1  UNL1        0.0000
     11 C           4.4732    0.0523    1.0826 C.ar    1  UNL1        0.0000
     12 O           3.2943   -0.1953    1.7360 O.2     1  UNL1        0.0000
     13 C           2.3389   -0.0864    0.7696 C.ar    1  UNL1        0.0000
     14 C           0.9665   -0.1895    0.6324 C.ar    1  UNL1        0.0000
     15 C          -2.7025   -0.4891    0.3245 C.ar    1  UNL1        0.0000
     16 C          -3.2849   -1.4782    1.1604 C.ar    1  UNL1        0.0000
     17 C          -4.7037   -1.6614    1.3452 C.ar    1  UNL1        0.0000
     18 C          -5.6963   -0.8697    0.7260 C.ar    1  UNL1        0.0000
     19 C          -5.1056    0.1020   -0.0688 C.ar    1  UNL1        0.0000
     20 C          -5.7513    1.0650   -0.7959 C.ar    1  UNL1        0.0000
     21 O          -4.8281    1.8579   -1.4195 O.2     1  UNL1        0.0000
     22 C          -3.5867    1.3900   -1.0816 C.ar    1  UNL1        0.0000
     23 C          -3.7027    0.2921   -0.2659 C.ar    1  UNL1        0.0000
     24 H          -0.4905    0.2792    2.1190 H       1  UNL1        0.0000
     25 H          -0.3104   -1.4750    1.7465 H       1  UNL1        0.0000
     26 H          -1.0553    0.1291   -2.0107 H       1  UNL1        0.0000
     27 H           1.9886    0.5210   -2.3650 H       1  UNL1        0.0000
     28 H           6.0732    2.0246   -1.5372 H       1  UNL1        0.0000
     29 H           6.3052   -0.4118   -2.0382 H       1  UNL1        0.0000
     30 H           7.7787    0.4372    0.7444 H       1  UNL1        0.0000
     31 H           6.0250   -0.1200    2.6395 H       1  UNL1        0.0000
     32 H          -2.6288   -2.1679    1.6932 H       1  UNL1        0.0000
     33 H          -5.0268   -2.4659    2.0079 H       1  UNL1        0.0000
     34 H          -6.7567   -1.0123    0.8758 H       1  UNL1        0.0000
     35 H          -6.7848    1.3298   -0.9672 H       1  UNL1        0.0000
     36 H          -2.7605    1.9502   -1.4946 H       1  UNL1        0.0000
@<TRIPOS>BOND
     1     1     2    1
     2     2     3    2
     3     3     4    1
     4     4     5   ar
     5     5     6   ar
     6     6     7   ar
     7     7     8    1
     8     8     9    1
     9     9    10    2
    10    10    11    1
    11    11    12   ar
    12    12    13   ar
    13    13    14   ar
    14     2    15    1
    15    15    16   ar
    16    16    17   ar
    17    17    18   ar
    18    18    19   ar
    19    19    20   ar
    20    20    21   ar
    21    21    22   ar
    22    22    23   ar
    23    14     1    1
    24    23    15   ar
    25    14     4   ar
    26    23    19   ar
    27    13     6   ar
    28    11     7   ar
    29     1    24    1
    30     1    25    1
    31     3    26    1
    32     5    27    1
    33     8    28    1
    34     8    29    1
    35     9    30    1
    36    10    31    1
    37    16    32    1
    38    17    33    1
    39    18    34    1
    40    20    35    1
    41    22    36    1
