@<TRIPOS>MOLECULE
*****
 32 36 0 0 0
SMALL
GASTEIGER

@<TRIPOS>ATOM
      1 C           0.0972   -0.3556    0.3570 C.3     1  UNL1        0.0013
      2 C           0.8860    0.3953   -0.7791 C.2     1  UNL1       -0.0253
      3 C           0.0151    1.0787   -1.5809 C.2     1  UNL1       -0.0335
      4 C          -1.2596    0.8344   -1.0627 C.ar    1  UNL1        0.0441
      5 N          -2.5034    1.2201   -1.4055 N.ar    1  UNL1       -0.3544
      6 C          -3.3822    0.6424   -0.4920 C.ar    1  UNL1        0.0472
      7 C          -4.7772    0.7327   -0.4112 C.ar    1  UNL1       -0.0378
      8 C          -5.4149    0.0403    0.6231 C.ar    1  UNL1       -0.0598
      9 C          -4.6881   -0.7143    1.5428 C.ar    1  UNL1       -0.0611
     10 C          -3.2937   -0.8011    1.4573 C.ar    1  UNL1       -0.0523
     11 C          -2.6259   -0.1153    0.4276 C.ar    1  UNL1        0.0037
     12 C          -1.2898    0.0314    0.0332 C.ar    1  UNL1       -0.0106
     13 C           2.2954    0.4137   -1.0103 C.ar    1  UNL1        0.0396
     14 S           3.0826    1.2828   -2.3124 S.2     1  UNL1       -0.0943
     15 C           4.6749    0.7809   -1.8602 C.ar    1  UNL1       -0.0145
     16 C           4.5543   -0.0025   -0.7729 C.ar    1  UNL1        0.0073
     17 C           5.3609   -0.7434    0.1206 C.ar    1  UNL1       -0.0361
     18 C           4.4930   -1.3366    1.0576 C.ar    1  UNL1        0.0028
     19 N           3.1618   -1.0087    0.8049 N.ar    1  UNL1       -0.3598
     20 C           3.2738   -0.2101   -0.3020 C.ar    1  UNL1        0.0611
     21 H           0.2408   -1.4372    0.2784 H       1  UNL1        0.0363
     22 H           0.3961    0.0111    1.3434 H       1  UNL1        0.0363
     23 H           0.2310    1.6903   -2.4439 H       1  UNL1        0.0641
     24 H          -2.7705    1.8160   -2.1767 H       1  UNL1        0.1659
     25 H          -5.3499    1.3179   -1.1232 H       1  UNL1        0.0638
     26 H          -6.4980    0.0922    0.7105 H       1  UNL1        0.0618
     27 H          -5.2094   -1.2428    2.3373 H       1  UNL1        0.0618
     28 H          -2.7381   -1.3916    2.1789 H       1  UNL1        0.0624
     29 H           5.5502    1.0909   -2.4118 H       1  UNL1        0.0700
     30 H           6.4374   -0.8502    0.1087 H       1  UNL1        0.0639
     31 H           4.7224   -1.9776    1.8993 H       1  UNL1        0.0807
     32 H           2.3280   -1.2842    1.3034 H       1  UNL1        0.1654
@<TRIPOS>BOND
     1     1     2    1
     2     2     3    2
     3     3     4    1
     4     4     5   ar
     5     5     6   ar
     6     6     7   ar
     7     7     8   ar
     8     8     9   ar
     9     9    10   ar
    10    10    11   ar
    11    11    12   ar
    12     2    13    1
    13    13    14   ar
    14    14    15   ar
    15    15    16   ar
    16    16    17   ar
    17    17    18   ar
    18    18    19   ar
    19    19    20   ar
    20    12     1    1
    21    20    13   ar
    22    12     4   ar
    23    20    16   ar
    24    11     6   ar
    25     1    21    1
    26     1    22    1
    27     3    23    1
    28     5    24    1
    29     7    25    1
    30     8    26    1
    31     9    27    1
    32    10    28    1
    33    15    29    1
    34    17    30    1
    35    18    31    1
    36    19    32    1
