@<TRIPOS>MOLECULE
*****
 33 38 0 0 0
SMALL
GASTEIGER

@<TRIPOS>ATOM
      1 C          -0.5566    0.3841    0.1317 C.3     1  UNL1        0.0000
      2 C          -1.5916   -0.4248   -0.6634 C.2     1  UNL1        0.0000
      3 C          -0.9462   -1.3547   -1.4056 C.2     1  UNL1        0.0000
      4 C           0.4585   -1.2364   -1.1720 C.2     1  UNL1        0.0000
      5 C           0.7238   -0.2450   -0.2917 C.2     1  UNL1        0.0000
      6 C           2.1108   -0.1514   -0.0820 C.ar    1  UNL1        0.0000
      7 N           2.8034    0.6971    0.7142 N.ar    1  UNL1        0.0000
      8 C           4.1456    0.3745    0.5604 C.ar    1  UNL1        0.0000
      9 C           5.3911    0.8311    1.0699 C.ar    1  UNL1        0.0000
     10 C           6.4194    0.0899    0.5258 C.ar    1  UNL1        0.0000
     11 S           5.9140   -1.1329   -0.5762 S.2     1  UNL1        0.0000
     12 C           4.2683   -0.6716   -0.3307 C.ar    1  UNL1        0.0000
     13 C           2.9732   -1.0024   -0.7363 C.ar    1  UNL1        0.0000
     14 SI          1.9619   -2.1415   -1.8132 Si      1  UNL1        0.0000
     15 C          -3.0087   -0.2598   -0.6537 C.ar    1  UNL1        0.0000
     16 S          -4.1141   -1.2397   -1.6128 S.2     1  UNL1        0.0000
     17 C          -5.5353   -0.4353   -1.0468 C.ar    1  UNL1        0.0000
     18 C          -5.1430    0.5138   -0.1823 C.ar    1  UNL1        0.0000
     19 O          -5.9547    1.3738    0.4903 O.2     1  UNL1        0.0000
     20 C          -5.0031    2.0828    1.1988 C.ar    1  UNL1        0.0000
     21 C          -3.6861    1.6683    0.9627 C.ar    1  UNL1        0.0000
     22 C          -3.7908    0.6140    0.0336 C.ar    1  UNL1        0.0000
     23 H          -0.5898    1.4424   -0.1460 H       1  UNL1        0.0000
     24 H          -0.7163    0.2728    1.2089 H       1  UNL1        0.0000
     25 H          -1.3805   -2.0828   -2.0745 H       1  UNL1        0.0000
     26 H           2.4631    1.4341    1.3184 H       1  UNL1        0.0000
     27 H           5.5289    1.6373    1.7781 H       1  UNL1        0.0000
     28 H           7.4772    0.2020    0.7207 H       1  UNL1        0.0000
     29 H           1.9784   -3.5640   -1.3837 H       1  UNL1        0.0000
     30 H           2.1542   -1.9346   -3.2722 H       1  UNL1        0.0000
     31 H          -6.5370   -0.6876   -1.3618 H       1  UNL1        0.0000
     32 H          -5.4167    2.8557    1.8336 H       1  UNL1        0.0000
     33 H          -2.8014    2.0908    1.4153 H       1  UNL1        0.0000
@<TRIPOS>BOND
     1     1     2    1
     2     2     3    2
     3     3     4    1
     4     4     5    2
     5     5     6    1
     6     6     7   ar
     7     7     8   ar
     8     8     9   ar
     9     9    10   ar
    10    10    11   ar
    11    11    12   ar
    12    12    13   ar
    13    13    14    1
    14     2    15    1
    15    15    16   ar
    16    16    17   ar
    17    17    18   ar
    18    18    19   ar
    19    19    20   ar
    20    20    21   ar
    21    21    22   ar
    22     5     1    1
    23    13     6   ar
    24    22    15   ar
    25    14     4    1
    26    22    18   ar
    27    12     8   ar
    28     1    23    1
    29     1    24    1
    30     3    25    1
    31     7    26    1
    32     9    27    1
    33    10    28    1
    34    14    29    1
    35    14    30    1
    36    17    31    1
    37    20    32    1
    38    21    33    1
