@<TRIPOS>MOLECULE
*****
 39 45 0 0 0
SMALL
GASTEIGER

@<TRIPOS>ATOM
      1 C          -0.8675   -1.2190   -1.1650 C.3     1  UNL1        0.0012
      2 C          -1.9867   -0.7573   -0.2207 C.2     1  UNL1       -0.0281
      3 C          -1.5006   -0.0396    0.8159 C.2     1  UNL1       -0.0491
      4 C          -0.0709    0.0537    0.6476 C.ar    1  UNL1       -0.0101
      5 C           0.3547   -0.6264   -0.5152 C.ar    1  UNL1       -0.0113
      6 C           1.7170   -0.6551   -0.8639 C.ar    1  UNL1        0.0537
      7 N           2.4273   -1.2184   -1.9045 N.ar    1  UNL1       -0.3527
      8 C           3.7685   -0.9202   -1.7354 C.ar    1  UNL1        0.0653
      9 C           5.0369   -1.1222   -2.3342 C.ar    1  UNL1       -0.0204
     10 C           5.9274   -0.4665   -1.5034 C.ar    1  UNL1        0.0042
     11 N           5.2567    0.1099   -0.4497 N.ar    1  UNL1       -0.3589
     12 C           3.9313   -0.1743   -0.6016 C.ar    1  UNL1        0.0727
     13 C           2.6600   -0.0180   -0.0740 C.ar    1  UNL1        0.0330
     14 C           2.2976    0.6804    1.1050 C.ar    1  UNL1        0.0111
     15 C           3.0054    1.3731    2.0375 C.ar    1  UNL1        0.0101
     16 N           2.0536    1.8121    2.9423 N.ar    1  UNL1       -0.3659
     17 C           0.7850    1.3926    2.5638 C.ar    1  UNL1        0.0100
     18 C           0.9181    0.6727    1.4008 C.ar    1  UNL1        0.0076
     19 C          -3.3829   -1.0242   -0.3362 C.ar    1  UNL1        0.0239
     20 S          -3.9270   -2.5213   -1.0367 S.2     1  UNL1       -0.0952
     21 C          -5.5924   -2.1509   -0.8304 C.ar    1  UNL1       -0.0094
     22 C          -5.7369   -0.9173   -0.2689 C.ar    1  UNL1        0.0269
     23 S          -7.2205    0.0102    0.1596 S.2     1  UNL1       -0.0961
     24 C          -6.1021    1.2610    0.6793 C.ar    1  UNL1       -0.0231
     25 C          -4.7400    0.9723    0.5360 C.ar    1  UNL1       -0.0459
     26 C          -4.5024   -0.3204   -0.0110 C.ar    1  UNL1        0.0037
     27 H          -1.0089   -0.8108   -2.1704 H       1  UNL1        0.0363
     28 H          -0.7913   -2.3100   -1.1951 H       1  UNL1        0.0363
     29 H          -2.0346    0.3897    1.6468 H       1  UNL1        0.0627
     30 H           2.0673   -1.7627   -2.6766 H       1  UNL1        0.1660
     31 H           5.2743   -1.6650   -3.2383 H       1  UNL1        0.0653
     32 H           7.0021   -0.3606   -1.5758 H       1  UNL1        0.0807
     33 H           5.6335    0.6517    0.3174 H       1  UNL1        0.1654
     34 H           4.0523    1.6032    2.1671 H       1  UNL1        0.0813
     35 H           2.2528    2.3623    3.7673 H       1  UNL1        0.1648
     36 H          -0.0754    1.6510    3.1652 H       1  UNL1        0.0813
     37 H          -6.3802   -2.8288   -1.1282 H       1  UNL1        0.0705
     38 H          -6.5313    2.1733    1.0707 H       1  UNL1        0.0694
     39 H          -3.9703    1.6818    0.8129 H       1  UNL1        0.0629
@<TRIPOS>BOND
     1     1     2    1
     2     2     3    2
     3     3     4    1
     4     4     5   ar
     5     5     6   ar
     6     6     7   ar
     7     7     8   ar
     8     8     9   ar
     9     9    10   ar
    10    10    11   ar
    11    11    12   ar
    12    12    13   ar
    13    13    14   ar
    14    14    15   ar
    15    15    16   ar
    16    16    17   ar
    17    17    18   ar
    18     2    19    1
    19    19    20   ar
    20    20    21   ar
    21    21    22   ar
    22    22    23   ar
    23    23    24   ar
    24    24    25   ar
    25    25    26   ar
    26     5     1    1
    27    13     6   ar
    28    18    14   ar
    29    26    19   ar
    30    18     4   ar
    31    26    22   ar
    32    12     8   ar
    33     1    27    1
    34     1    28    1
    35     3    29    1
    36     7    30    1
    37     9    31    1
    38    10    32    1
    39    11    33    1
    40    15    34    1
    41    16    35    1
    42    17    36    1
    43    21    37    1
    44    24    38    1
    45    25    39    1
