@<TRIPOS>MOLECULE
*****
 44 50 0 0 0
SMALL
GASTEIGER

@<TRIPOS>ATOM
      1 C           0.9761    0.6442   -0.4145 C.3     1  UNL1        0.0007
      2 C           2.0013   -0.1242    0.4139 C.2     1  UNL1       -0.0346
      3 C           1.4087   -1.0606    1.1890 C.2     1  UNL1       -0.0496
      4 C          -0.0101   -0.9936    0.9435 C.ar    1  UNL1       -0.0101
      5 C          -0.3219   -0.0023    0.0014 C.ar    1  UNL1       -0.0114
      6 C          -1.6567    0.2290   -0.3837 C.ar    1  UNL1        0.0522
      7 N          -2.2274    1.1163   -1.2647 N.ar    1  UNL1       -0.3539
      8 C          -3.6033    0.9628   -1.3055 C.ar    1  UNL1        0.0475
      9 C          -4.5545    1.6590   -2.0628 C.ar    1  UNL1       -0.0378
     10 C          -5.8966    1.2998   -1.9122 C.ar    1  UNL1       -0.0598
     11 C          -6.2729    0.2836   -1.0381 C.ar    1  UNL1       -0.0611
     12 C          -5.3131   -0.4051   -0.2866 C.ar    1  UNL1       -0.0520
     13 C          -3.9524   -0.0644   -0.4178 C.ar    1  UNL1        0.0080
     14 C          -2.7327   -0.4902    0.1289 C.ar    1  UNL1        0.0168
     15 C          -2.4392   -1.5121    1.0961 C.ar    1  UNL1        0.0097
     16 C          -3.2427   -2.3766    1.7763 C.ar    1  UNL1        0.0101
     17 N          -2.3833   -3.1203    2.5647 N.ar    1  UNL1       -0.3659
     18 C          -1.0714   -2.7169    2.3702 C.ar    1  UNL1        0.0100
     19 C          -1.0863   -1.7006    1.4449 C.ar    1  UNL1        0.0075
     20 C           3.4459    0.1230    0.3707 C.ar    1  UNL1       -0.0108
     21 C           4.4091   -0.6111    1.1285 C.ar    1  UNL1       -0.0536
     22 C           5.8343   -0.3942    1.1084 C.ar    1  UNL1       -0.0605
     23 C           6.4724    0.5857    0.3257 C.ar    1  UNL1       -0.0510
     24 C           5.5329    1.2933   -0.4068 C.ar    1  UNL1        0.0204
     25 C           5.8045    2.3173   -1.2724 C.ar    1  UNL1        0.0994
     26 O           4.6375    2.7729   -1.8109 O.2     1  UNL1       -0.4698
     27 C           3.6196    2.0283   -1.2791 C.ar    1  UNL1        0.1000
     28 C           4.1108    1.0927   -0.4006 C.ar    1  UNL1        0.0272
     29 H           1.1321    0.4985   -1.4876 H       1  UNL1        0.0362
     30 H           0.9563    1.7056   -0.1497 H       1  UNL1        0.0362
     31 H           1.8544   -1.7565    1.8784 H       1  UNL1        0.0627
     32 H          -1.7160    1.7920   -1.8119 H       1  UNL1        0.1659
     33 H          -4.2666    2.4518   -2.7455 H       1  UNL1        0.0638
     34 H          -6.6578    1.8225   -2.4869 H       1  UNL1        0.0618
     35 H          -7.3227    0.0199   -0.9360 H       1  UNL1        0.0618
     36 H          -5.6246   -1.1938    0.3893 H       1  UNL1        0.0624
     37 H          -4.3078   -2.5518    1.7958 H       1  UNL1        0.0813
     38 H          -2.6715   -3.8563    3.1958 H       1  UNL1        0.1648
     39 H          -0.2676   -3.1964    2.9112 H       1  UNL1        0.0813
     40 H           4.0651   -1.4100    1.7861 H       1  UNL1        0.0624
     41 H           6.4520   -1.0329    1.7414 H       1  UNL1        0.0618
     42 H           7.5411    0.7432    0.3150 H       1  UNL1        0.0625
     43 H           6.7016    2.8193   -1.6057 H       1  UNL1        0.1035
     44 H           2.6436    2.3093   -1.6414 H       1  UNL1        0.1036
@<TRIPOS>BOND
     1     1     2    1
     2     2     3    2
     3     3     4    1
     4     4     5   ar
     5     5     6   ar
     6     6     7   ar
     7     7     8   ar
     8     8     9   ar
     9     9    10   ar
    10    10    11   ar
    11    11    12   ar
    12    12    13   ar
    13    13    14   ar
    14    14    15   ar
    15    15    16   ar
    16    16    17   ar
    17    17    18   ar
    18    18    19   ar
    19     2    20    1
    20    20    21   ar
    21    21    22   ar
    22    22    23   ar
    23    23    24   ar
    24    24    25   ar
    25    25    26   ar
    26    26    27   ar
    27    27    28   ar
    28     5     1    1
    29    14     6   ar
    30    19    15   ar
    31    28    20   ar
    32    19     4   ar
    33    28    24   ar
    34    13     8   ar
    35     1    29    1
    36     1    30    1
    37     3    31    1
    38     7    32    1
    39     9    33    1
    40    10    34    1
    41    11    35    1
    42    12    36    1
    43    16    37    1
    44    17    38    1
    45    18    39    1
    46    21    40    1
    47    22    41    1
    48    23    42    1
    49    25    43    1
    50    27    44    1
