@<TRIPOS>MOLECULE
*****
 37 43 0 0 0
SMALL
GASTEIGER

@<TRIPOS>ATOM
      1 C           0.6145   -1.4573    0.4001 C.3     1  UNL1        0.0012
      2 C           1.7755   -0.4526    0.4225 C.2     1  UNL1       -0.0281
      3 C           1.3355    0.8234    0.3551 C.2     1  UNL1       -0.0490
      4 C          -0.1031    0.7816    0.2645 C.ar    1  UNL1       -0.0085
      5 C          -0.5824   -0.5498    0.2832 C.ar    1  UNL1       -0.0112
      6 C          -1.9634   -0.8122    0.2026 C.ar    1  UNL1        0.0553
      7 N          -2.7277   -1.9688    0.1976 N.ar    1  UNL1       -0.3513
      8 C          -4.0652   -1.6153    0.0962 C.ar    1  UNL1        0.0860
      9 C          -5.3711   -2.1449    0.0312 C.ar    1  UNL1        0.0002
     10 C          -6.1568   -1.0156   -0.0637 C.ar    1  UNL1        0.0946
     11 O          -5.4375    0.1456   -0.0614 O.2     1  UNL1       -0.4607
     12 C          -4.1488   -0.2610    0.0385 C.ar    1  UNL1        0.1606
     13 C          -2.8688    0.2344    0.1033 C.ar    1  UNL1        0.0536
     14 C          -2.4538    1.5814    0.0803 C.ar    1  UNL1        0.0331
     15 C          -3.0989    2.7707   -0.0065 C.ar    1  UNL1        0.1001
     16 O          -2.1364    3.7559    0.0202 O.2     1  UNL1       -0.4698
     17 C          -0.9056    3.1424    0.1248 C.ar    1  UNL1        0.1000
     18 C          -1.0621    1.7798    0.1646 C.ar    1  UNL1        0.0281
     19 C           3.1684   -0.7425    0.5219 C.ar    1  UNL1        0.0239
     20 S           3.7048   -2.1270    1.4294 S.2     1  UNL1       -0.0952
     21 C           5.3702   -1.8279    1.1296 C.ar    1  UNL1       -0.0094
     22 C           5.5188   -0.7243    0.3435 C.ar    1  UNL1        0.0269
     23 S           7.0032    0.0556   -0.3143 S.2     1  UNL1       -0.0961
     24 C           5.8893    1.1828   -1.0715 C.ar    1  UNL1       -0.0231
     25 C           4.5281    0.9676   -0.8262 C.ar    1  UNL1       -0.0459
     26 C           4.2883   -0.1500    0.0227 C.ar    1  UNL1        0.0037
     27 H           0.6849   -2.1198   -0.4680 H       1  UNL1        0.0363
     28 H           0.5641   -2.0350    1.3279 H       1  UNL1        0.0363
     29 H           1.9117    1.7334    0.3791 H       1  UNL1        0.0627
     30 H          -2.4001   -2.9242    0.2566 H       1  UNL1        0.1660
     31 H          -5.6998   -3.1729    0.0495 H       1  UNL1        0.0670
     32 H          -7.2271   -0.8747   -0.1389 H       1  UNL1        0.1030
     33 H          -4.1240    3.1020   -0.0862 H       1  UNL1        0.1036
     34 H          -0.0604    3.8149    0.1568 H       1  UNL1        0.1036
     35 H           6.1549   -2.4593    1.5227 H       1  UNL1        0.0705
     36 H           6.3199    1.9658   -1.6809 H       1  UNL1        0.0694
     37 H           3.7611    1.5977   -1.2586 H       1  UNL1        0.0629
@<TRIPOS>BOND
     1     1     2    1
     2     2     3    2
     3     3     4    1
     4     4     5   ar
     5     5     6   ar
     6     6     7   ar
     7     7     8   ar
     8     8     9   ar
     9     9    10   ar
    10    10    11   ar
    11    11    12   ar
    12    12    13   ar
    13    13    14   ar
    14    14    15   ar
    15    15    16   ar
    16    16    17   ar
    17    17    18   ar
    18     2    19    1
    19    19    20   ar
    20    20    21   ar
    21    21    22   ar
    22    22    23   ar
    23    23    24   ar
    24    24    25   ar
    25    25    26   ar
    26     5     1    1
    27    13     6   ar
    28    18    14   ar
    29    26    19   ar
    30    18     4   ar
    31    26    22   ar
    32    12     8   ar
    33     1    27    1
    34     1    28    1
    35     3    29    1
    36     7    30    1
    37     9    31    1
    38    10    32    1
    39    15    33    1
    40    17    34    1
    41    21    35    1
    42    24    36    1
    43    25    37    1
