@<TRIPOS>MOLECULE
*****
 46 52 0 0 0
SMALL
GASTEIGER

@<TRIPOS>ATOM
      1 C           2.1256   -0.9405    0.0273 C.3     1  UNL1        0.0000
      2 C           3.2680    0.0175   -0.2444 C.2     1  UNL1        0.0000
      3 C           2.7826    1.1970   -0.6636 C.2     1  UNL1        0.0000
      4 C           1.3201    1.1467   -0.6715 C.ar    1  UNL1        0.0000
      5 C           0.8856   -0.1169   -0.2284 C.ar    1  UNL1        0.0000
      6 C          -0.4807   -0.4488   -0.0101 C.ar    1  UNL1        0.0000
      7 C          -0.9667   -1.7673    0.4373 C.ar    1  UNL1        0.0000
      8 C          -0.1847   -2.9581    0.4491 C.ar    1  UNL1        0.0000
      9 C          -0.6443   -4.2019    0.8956 C.ar    1  UNL1        0.0000
     10 C          -1.9363   -4.3233    1.3505 C.ar    1  UNL1        0.0000
     11 C          -2.7551   -3.2019    1.3382 C.ar    1  UNL1        0.0000
     12 C          -2.3055   -1.9322    0.8834 C.ar    1  UNL1        0.0000
     13 C          -3.1466   -0.8123    0.8859 C.ar    1  UNL1        0.0000
     14 C          -4.5194   -0.7885    1.4618 C.2     1  UNL1        0.0000
     15 C          -5.1207    0.4089    1.4766 C.2     1  UNL1        0.0000
     16 SI         -4.0733    1.7296    0.7315 Si      1  UNL1        0.0000
     17 C          -2.7018    0.4303    0.3391 C.ar    1  UNL1        0.0000
     18 C          -1.3995    0.6316   -0.2127 C.ar    1  UNL1        0.0000
     19 C          -0.9534    1.8558   -0.9034 C.ar    1  UNL1        0.0000
     20 C          -1.8178    2.8133   -1.5006 C.ar    1  UNL1        0.0000
     21 C          -1.3809    4.0107   -2.0787 C.ar    1  UNL1        0.0000
     22 C          -0.0324    4.2959   -2.1167 C.ar    1  UNL1        0.0000
     23 C           0.8637    3.3540   -1.6287 C.ar    1  UNL1        0.0000
     24 C           0.4238    2.1305   -1.0637 C.ar    1  UNL1        0.0000
     25 C           4.6638   -0.2589   -0.1021 C.ar    1  UNL1        0.0000
     26 C           5.2661   -1.4327    0.3357 C.ar    1  UNL1        0.0000
     27 N           6.6465   -1.4521    0.3825 N.ar    1  UNL1        0.0000
     28 C           7.1008   -0.2885   -0.0188 C.ar    1  UNL1        0.0000
     29 S           5.9246    0.8684   -0.4669 S.2     1  UNL1        0.0000
     30 H           2.1603   -1.2913    1.0635 H       1  UNL1        0.0000
     31 H           2.2072   -1.7629   -0.6896 H       1  UNL1        0.0000
     32 H           3.3460    2.0744   -0.9357 H       1  UNL1        0.0000
     33 H           0.8222   -2.9741    0.0611 H       1  UNL1        0.0000
     34 H           0.0129   -5.0672    0.8706 H       1  UNL1        0.0000
     35 H          -2.3153   -5.2793    1.6993 H       1  UNL1        0.0000
     36 H          -3.7736   -3.3448    1.6873 H       1  UNL1        0.0000
     37 H          -4.9987   -1.6697    1.8630 H       1  UNL1        0.0000
     38 H          -6.1065    0.6165    1.8636 H       1  UNL1        0.0000
     39 H          -3.6339    2.7341    1.7313 H       1  UNL1        0.0000
     40 H          -4.7338    2.2831   -0.4780 H       1  UNL1        0.0000
     41 H          -2.8773    2.6093   -1.6009 H       1  UNL1        0.0000
     42 H          -2.1007    4.7006   -2.5113 H       1  UNL1        0.0000
     43 H           0.3263    5.2201   -2.5600 H       1  UNL1        0.0000
     44 H           1.9234    3.5765   -1.7220 H       1  UNL1        0.0000
     45 H           4.7305   -2.3243    0.6397 H       1  UNL1        0.0000
     46 H           8.1590   -0.0675   -0.0659 H       1  UNL1        0.0000
@<TRIPOS>BOND
     1     1     2    1
     2     2     3    2
     3     3     4    1
     4     4     5   ar
     5     5     6   ar
     6     6     7   ar
     7     7     8   ar
     8     8     9   ar
     9     9    10   ar
    10    10    11   ar
    11    11    12   ar
    12    12    13   ar
    13    13    14    1
    14    14    15    2
    15    15    16    1
    16    16    17    1
    17    17    18   ar
    18    18    19   ar
    19    19    20   ar
    20    20    21   ar
    21    21    22   ar
    22    22    23   ar
    23    23    24   ar
    24     2    25    1
    25    25    26   ar
    26    26    27   ar
    27    27    28   ar
    28    28    29   ar
    29     5     1    1
    30    18     6   ar
    31    24    19   ar
    32    29    25   ar
    33    24     4   ar
    34    12     7   ar
    35    17    13   ar
    36     1    30    1
    37     1    31    1
    38     3    32    1
    39     8    33    1
    40     9    34    1
    41    10    35    1
    42    11    36    1
    43    14    37    1
    44    15    38    1
    45    16    39    1
    46    16    40    1
    47    20    41    1
    48    21    42    1
    49    22    43    1
    50    23    44    1
    51    26    45    1
    52    28    46    1
