@<TRIPOS>MOLECULE
*****
 45 52 0 0 0
SMALL
GASTEIGER

@<TRIPOS>ATOM
      1 C           1.2522    0.4418   -0.4421 C.3     1  UNL1        0.0009
      2 C           2.5071   -0.1939    0.1418 C.2     1  UNL1       -0.0149
      3 C           2.2160   -1.1396    1.0501 C.2     1  UNL1       -0.0480
      4 C           0.7817   -1.1898    1.1240 C.ar    1  UNL1       -0.0099
      5 C           0.1188   -0.2799    0.2671 C.ar    1  UNL1       -0.0268
      6 C          -1.3364   -0.1150    0.1352 C.ar    1  UNL1       -0.0043
      7 C          -1.9951    0.8225   -0.7480 C.ar    1  UNL1       -0.0092
      8 C          -1.3400    1.7316   -1.6259 C.ar    1  UNL1       -0.0534
      9 C          -2.0103    2.6270   -2.4689 C.ar    1  UNL1       -0.0611
     10 C          -3.3881    2.6608   -2.4784 C.ar    1  UNL1       -0.0611
     11 C          -4.0858    1.7982   -1.6438 C.ar    1  UNL1       -0.0534
     12 C          -3.4182    0.8857   -0.7844 C.ar    1  UNL1       -0.0091
     13 C          -4.2399    0.0457    0.0309 C.ar    1  UNL1       -0.0025
     14 C          -5.6842   -0.0392    0.1359 C.ar    1  UNL1       -0.0464
     15 C          -6.1188   -0.9744    1.0357 C.ar    1  UNL1       -0.0231
     16 S          -4.8209   -1.7648    1.7686 S.2     1  UNL1       -0.0960
     17 C          -3.6163   -0.8675    0.8920 C.ar    1  UNL1        0.0283
     18 C          -2.1975   -0.9620    0.9583 C.ar    1  UNL1        0.0080
     19 C          -1.4894   -1.8651    1.8083 C.ar    1  UNL1        0.0292
     20 C          -1.9310   -2.8045    2.7129 C.ar    1  UNL1        0.1000
     21 O          -0.8780   -3.4464    3.3073 O.2     1  UNL1       -0.4698
     22 C           0.2646   -2.9209    2.7857 C.ar    1  UNL1        0.1000
     23 C          -0.0666   -1.9593    1.8734 C.ar    1  UNL1        0.0279
     24 C           3.8121    0.2683   -0.3239 C.ar    1  UNL1        0.0954
     25 N           3.8373    1.2632   -1.2723 N.ar    1  UNL1       -0.2530
     26 C           5.0152    1.7569   -1.7657 C.ar    1  UNL1        0.0304
     27 C           6.3017    1.3659   -1.4185 C.ar    1  UNL1       -0.0153
     28 C           6.3336    0.3474   -0.4488 C.ar    1  UNL1        0.1034
     29 N           7.4507   -0.2023    0.0530 N.ar    1  UNL1       -0.1907
     30 S           6.9618   -1.3444    1.1507 S.2     1  UNL1        0.1165
     31 N           5.3159   -1.1940    1.0397 N.ar    1  UNL1       -0.1886
     32 C           5.0641   -0.2335    0.1296 C.ar    1  UNL1        0.1254
     33 H           1.2352    1.5099   -0.2021 H       1  UNL1        0.0362
     34 H           1.2112    0.2527   -1.5198 H       1  UNL1        0.0362
     35 H           2.8828   -1.7572    1.6276 H       1  UNL1        0.0627
     36 H          -0.2639    1.7842   -1.6936 H       1  UNL1        0.0624
     37 H          -1.4419    3.2929   -3.1134 H       1  UNL1        0.0618
     38 H          -3.9200    3.3503   -3.1273 H       1  UNL1        0.0618
     39 H          -5.1699    1.8544   -1.6794 H       1  UNL1        0.0624
     40 H          -6.3809    0.5654   -0.4297 H       1  UNL1        0.0629
     41 H          -7.1394   -1.2244    1.2912 H       1  UNL1        0.0694
     42 H          -2.8898   -3.1531    3.0625 H       1  UNL1        0.1036
     43 H           1.1885   -3.3343    3.1641 H       1  UNL1        0.1036
     44 H           4.8794    2.5413   -2.5105 H       1  UNL1        0.0830
     45 H           7.1925    1.7996   -1.8492 H       1  UNL1        0.0655
@<TRIPOS>BOND
     1     1     2    1
     2     2     3    2
     3     3     4    1
     4     4     5   ar
     5     5     6   ar
     6     6     7   ar
     7     7     8   ar
     8     8     9   ar
     9     9    10   ar
    10    10    11   ar
    11    11    12   ar
    12    12    13   ar
    13    13    14   ar
    14    14    15   ar
    15    15    16   ar
    16    16    17   ar
    17    17    18   ar
    18    18    19   ar
    19    19    20   ar
    20    20    21   ar
    21    21    22   ar
    22    22    23   ar
    23     2    24    1
    24    24    25   ar
    25    25    26   ar
    26    26    27   ar
    27    27    28   ar
    28    28    29   ar
    29    29    30   ar
    30    30    31   ar
    31    31    32   ar
    32     5     1    1
    33    18     6   ar
    34    23    19   ar
    35    32    24   ar
    36    23     4   ar
    37    32    28   ar
    38    12     7   ar
    39    17    13   ar
    40     1    33    1
    41     1    34    1
    42     3    35    1
    43     8    36    1
    44     9    37    1
    45    10    38    1
    46    11    39    1
    47    14    40    1
    48    15    41    1
    49    20    42    1
    50    22    43    1
    51    26    44    1
    52    27    45    1
