@<TRIPOS>MOLECULE
*****
 39 44 0 0 0
SMALL
GASTEIGER

@<TRIPOS>ATOM
      1 SI          1.2940   -0.2529   -1.2720 Si      1  UNL1        0.0000
      2 C           0.0570   -0.3604    0.1575 C.2     1  UNL1        0.0000
      3 C           0.6910   -0.5475    1.3330 C.2     1  UNL1        0.0000
      4 C           2.1449   -0.6008    1.2537 C.2     1  UNL1        0.0000
      5 C           2.6547   -0.4863    0.0112 C.2     1  UNL1        0.0000
      6 C           4.0246   -0.5020   -0.3009 C.ar    1  UNL1        0.0000
      7 S           4.7761   -1.6433   -1.3794 S.2     1  UNL1        0.0000
      8 C           6.3689   -0.9834   -1.1497 C.ar    1  UNL1        0.0000
      9 C           6.2606    0.0528   -0.2940 C.ar    1  UNL1        0.0000
     10 C           7.0449    1.0472    0.3377 C.ar    1  UNL1        0.0000
     11 C           6.1676    1.8310    1.1181 C.ar    1  UNL1        0.0000
     12 N           4.8525    1.3802    1.0221 N.ar    1  UNL1        0.0000
     13 C           4.9916    0.3212    0.1696 C.ar    1  UNL1        0.0000
     14 C          -1.3472   -0.3217    0.0060 C.ar    1  UNL1        0.0000
     15 S          -2.1483    0.8821   -0.9818 S.2     1  UNL1        0.0000
     16 C          -3.7529    0.3096   -0.6408 C.ar    1  UNL1        0.0000
     17 C          -4.9708    0.8875   -1.1546 C.ar    1  UNL1        0.0000
     18 C          -6.2676    0.6397   -0.7344 C.ar    1  UNL1        0.0000
     19 C          -7.2469    1.3830   -1.4588 C.ar    1  UNL1        0.0000
     20 C          -6.6753    2.1832   -2.4199 C.ar    1  UNL1        0.0000
     21 S          -4.9758    2.0343   -2.4420 S.2     1  UNL1        0.0000
     22 C          -3.6218   -0.7493    0.1888 C.ar    1  UNL1        0.0000
     23 O          -4.6167   -1.5222    0.7122 O.2     1  UNL1        0.0000
     24 C          -3.8643   -2.4187    1.4487 C.ar    1  UNL1        0.0000
     25 C          -2.4847   -2.2022    1.3795 C.ar    1  UNL1        0.0000
     26 C          -2.3341   -1.0848    0.5375 C.ar    1  UNL1        0.0000
     27 H           1.3334    1.1033   -1.8829 H       1  UNL1        0.0000
     28 H           1.1694   -1.3941   -2.2170 H       1  UNL1        0.0000
     29 H           0.1932   -0.6559    2.2897 H       1  UNL1        0.0000
     30 H           2.7382   -0.7405    2.1501 H       1  UNL1        0.0000
     31 H           7.2303   -1.3945   -1.6549 H       1  UNL1        0.0000
     32 H           8.1113    1.2045    0.2472 H       1  UNL1        0.0000
     33 H           6.3812    2.6925    1.7401 H       1  UNL1        0.0000
     34 H           4.0004    1.7246    1.4479 H       1  UNL1        0.0000
     35 H          -6.5175   -0.0453    0.0691 H       1  UNL1        0.0000
     36 H          -8.3137    1.3310   -1.2799 H       1  UNL1        0.0000
     37 H          -7.1732    2.8501   -3.1107 H       1  UNL1        0.0000
     38 H          -4.4538   -3.1615    1.9698 H       1  UNL1        0.0000
     39 H          -1.7213   -2.7904    1.8711 H       1  UNL1        0.0000
@<TRIPOS>BOND
     1     1     2    1
     2     2     3    2
     3     3     4    1
     4     4     5    2
     5     5     6    1
     6     6     7   ar
     7     7     8   ar
     8     8     9   ar
     9     9    10   ar
    10    10    11   ar
    11    11    12   ar
    12    12    13   ar
    13     2    14    1
    14    14    15   ar
    15    15    16   ar
    16    16    17    1
    17    17    18   ar
    18    18    19   ar
    19    19    20   ar
    20    20    21   ar
    21    16    22   ar
    22    22    23   ar
    23    23    24   ar
    24    24    25   ar
    25    25    26   ar
    26     5     1    1
    27    13     6   ar
    28    26    14   ar
    29    13     9   ar
    30    21    17   ar
    31    26    22   ar
    32     1    27    1
    33     1    28    1
    34     3    29    1
    35     4    30    1
    36     8    31    1
    37    10    32    1
    38    11    33    1
    39    12    34    1
    40    18    35    1
    41    19    36    1
    42    20    37    1
    43    24    38    1
    44    25    39    1
