@<TRIPOS>MOLECULE
*****
 45 52 0 0 0
SMALL
GASTEIGER

@<TRIPOS>ATOM
      1 C           2.4969    0.4566    0.7937 C.3     1  UNL1        0.0013
      2 C           3.1759   -0.8696    1.0467 C.2     1  UNL1       -0.0103
      3 C           2.2975   -1.8788    0.9123 C.2     1  UNL1       -0.0477
      4 C           0.9907   -1.3353    0.5503 C.ar    1  UNL1       -0.0129
      5 C           1.0892    0.0552    0.4462 C.ar    1  UNL1       -0.0269
      6 C          -0.0128    0.8467    0.0444 C.ar    1  UNL1       -0.0044
      7 C          -0.0748    2.2783   -0.0180 C.ar    1  UNL1       -0.0023
      8 C           0.9206    3.1264    0.4183 C.ar    1  UNL1       -0.0160
      9 S           0.5175    4.7820    0.2491 S.2     1  UNL1       -0.1038
     10 C          -1.0036    4.3927   -0.4233 C.ar    1  UNL1       -0.0160
     11 C          -1.2071    3.0310   -0.5132 C.ar    1  UNL1       -0.0025
     12 C          -2.3648    2.4593   -1.0934 C.ar    1  UNL1       -0.0069
     13 C          -3.4317    3.2425   -1.6598 C.ar    1  UNL1       -0.0513
     14 C          -4.4952    2.6893   -2.3693 C.ar    1  UNL1       -0.0329
     15 C          -4.4133    1.3026   -2.5747 C.ar    1  UNL1        0.1005
     16 N          -5.2814    0.6042   -3.3230 N.ar    1  UNL1       -0.1908
     17 S          -4.7191   -0.9490   -3.3695 S.2     1  UNL1        0.1165
     18 N          -3.3797   -0.8080   -2.4175 N.ar    1  UNL1       -0.1901
     19 C          -3.3086    0.4586   -1.9643 C.ar    1  UNL1        0.1082
     20 C          -2.2872    1.0086   -1.0795 C.ar    1  UNL1        0.0192
     21 C          -1.2370    0.2051   -0.3560 C.ar    1  UNL1        0.0006
     22 C          -1.3579   -1.2085    0.0102 C.ar    1  UNL1       -0.0089
     23 C          -2.6005   -1.8849    0.1055 C.ar    1  UNL1       -0.0534
     24 C          -2.7245   -3.2483    0.3948 C.ar    1  UNL1       -0.0611
     25 C          -1.5939   -4.0005    0.6426 C.ar    1  UNL1       -0.0611
     26 C          -0.3563   -3.3693    0.6579 C.ar    1  UNL1       -0.0534
     27 C          -0.2279   -1.9852    0.3935 C.ar    1  UNL1       -0.0098
     28 C           4.5335   -1.1398    1.3928 C.ar    1  UNL1        0.1046
     29 N           5.0684   -2.3292    1.6110 N.ar    1  UNL1       -0.2477
     30 C           6.4075   -2.2171    1.9232 C.ar    1  UNL1        0.0354
     31 C           6.9049   -0.9356    1.9465 C.ar    1  UNL1       -0.0042
     32 S           5.6590    0.1716    1.5653 S.2     1  UNL1       -0.0760
     33 H           2.9705    0.9803   -0.0426 H       1  UNL1        0.0363
     34 H           2.5179    1.0543    1.7102 H       1  UNL1        0.0363
     35 H           2.5127   -2.9289    1.0396 H       1  UNL1        0.0627
     36 H           1.8815    2.9153    0.8530 H       1  UNL1        0.0700
     37 H          -1.6465    5.2092   -0.7165 H       1  UNL1        0.0700
     38 H          -3.4248    4.3271   -1.5673 H       1  UNL1        0.0624
     39 H          -5.2855    3.2894   -2.8027 H       1  UNL1        0.0640
     40 H          -3.5317   -1.3371   -0.0159 H       1  UNL1        0.0624
     41 H          -3.7087   -3.7075    0.4276 H       1  UNL1        0.0618
     42 H          -1.6729   -5.0611    0.8619 H       1  UNL1        0.0618
     43 H           0.5123   -3.9707    0.9145 H       1  UNL1        0.0624
     44 H           6.9798   -3.1137    2.1273 H       1  UNL1        0.0835
     45 H           7.9111   -0.6079    2.1629 H       1  UNL1        0.0709
@<TRIPOS>BOND
     1     1     2    1
     2     2     3    2
     3     3     4    1
     4     4     5   ar
     5     5     6   ar
     6     6     7   ar
     7     7     8   ar
     8     8     9   ar
     9     9    10   ar
    10    10    11   ar
    11    11    12   ar
    12    12    13   ar
    13    13    14   ar
    14    14    15   ar
    15    15    16   ar
    16    16    17   ar
    17    17    18   ar
    18    18    19   ar
    19    19    20   ar
    20    20    21   ar
    21    21    22   ar
    22    22    23   ar
    23    23    24   ar
    24    24    25   ar
    25    25    26   ar
    26    26    27   ar
    27     2    28    1
    28    28    29   ar
    29    29    30   ar
    30    30    31   ar
    31    31    32   ar
    32     5     1    1
    33    21     6   ar
    34    27    22   ar
    35    32    28   ar
    36    27     4   ar
    37    11     7   ar
    38    20    12   ar
    39    19    15   ar
    40     1    33    1
    41     1    34    1
    42     3    35    1
    43     8    36    1
    44    10    37    1
    45    13    38    1
    46    14    39    1
    47    23    40    1
    48    24    41    1
    49    25    42    1
    50    26    43    1
    51    30    44    1
    52    31    45    1
