@<TRIPOS>MOLECULE
*****
 47 54 0 0 0
SMALL
GASTEIGER

@<TRIPOS>ATOM
      1 C           1.6163    0.2060   -0.3825 C.3     1  UNL1       -0.0002
      2 C           2.6171   -0.4809    0.5543 C.2     1  UNL1       -0.0281
      3 C           1.9752   -1.1372    1.5414 C.2     1  UNL1       -0.0491
      4 C           0.5662   -0.9451    1.3240 C.ar    1  UNL1       -0.0115
      5 C           0.2756   -0.1626    0.2014 C.ar    1  UNL1       -0.0269
      6 C          -1.0754    0.1770   -0.2266 C.ar    1  UNL1       -0.0044
      7 C          -1.4322    1.0134   -1.3313 C.ar    1  UNL1       -0.0023
      8 C          -0.5276    1.6489   -2.1550 C.ar    1  UNL1       -0.0160
      9 S          -1.2705    2.5990   -3.3714 S.2     1  UNL1       -0.1038
     10 C          -2.8298    2.1719   -2.8219 C.ar    1  UNL1       -0.0160
     11 C          -2.7901    1.3253   -1.7335 C.ar    1  UNL1       -0.0026
     12 C          -3.9634    0.8115   -1.1208 C.ar    1  UNL1       -0.0091
     13 C          -5.2899    1.0964   -1.5526 C.ar    1  UNL1       -0.0534
     14 C          -6.3786    0.4891   -0.9447 C.ar    1  UNL1       -0.0611
     15 C          -6.1559   -0.4209    0.0720 C.ar    1  UNL1       -0.0611
     16 C          -4.8485   -0.6917    0.5035 C.ar    1  UNL1       -0.0534
     17 C          -3.6925   -0.0636   -0.0248 C.ar    1  UNL1       -0.0089
     18 C          -2.2986   -0.3082    0.4581 C.ar    1  UNL1       -0.0001
     19 C          -1.8977   -1.0319    1.6478 C.ar    1  UNL1        0.0083
     20 C          -2.6693   -1.4751    2.7016 C.ar    1  UNL1        0.0100
     21 N          -1.8514   -2.1078    3.6174 N.ar    1  UNL1       -0.3659
     22 C          -0.5429   -2.0184    3.2190 C.ar    1  UNL1        0.0100
     23 C          -0.5444   -1.3324    2.0323 C.ar    1  UNL1        0.0074
     24 C           4.0408   -0.4480    0.4360 C.ar    1  UNL1        0.0249
     25 S           5.1383   -1.2595    1.5446 S.2     1  UNL1       -0.0943
     26 C           6.5716   -0.7381    0.7250 C.ar    1  UNL1        0.0002
     27 C           6.1921    0.0090   -0.3276 C.ar    1  UNL1        0.0542
     28 N           7.0108    0.6135   -1.2359 N.ar    1  UNL1       -0.3602
     29 C           6.0807    1.2280   -2.0708 C.ar    1  UNL1        0.0028
     30 C           4.7582    0.9779   -1.6458 C.ar    1  UNL1       -0.0356
     31 C           4.8333    0.1640   -0.4817 C.ar    1  UNL1        0.0141
     32 H           1.7721    1.2888   -0.3486 H       1  UNL1        0.0362
     33 H           1.7212   -0.1893   -1.3978 H       1  UNL1        0.0362
     34 H           2.3841   -1.7106    2.3562 H       1  UNL1        0.0627
     35 H           0.5476    1.6444   -2.1493 H       1  UNL1        0.0700
     36 H          -3.6823    2.5752   -3.3477 H       1  UNL1        0.0700
     37 H          -5.4811    1.7805   -2.3734 H       1  UNL1        0.0624
     38 H          -7.3884    0.7027   -1.2826 H       1  UNL1        0.0618
     39 H          -6.9932   -0.9412    0.5306 H       1  UNL1        0.0618
     40 H          -4.7583   -1.4726    1.2475 H       1  UNL1        0.0624
     41 H          -3.7166   -1.3907    2.9420 H       1  UNL1        0.0813
     42 H          -2.1684   -2.5282    4.4815 H       1  UNL1        0.1648
     43 H           0.2545   -2.4192    3.8299 H       1  UNL1        0.0813
     44 H           7.5637   -1.0059    1.0593 H       1  UNL1        0.0714
     45 H           8.0228    0.6014   -1.2694 H       1  UNL1        0.1653
     46 H           6.4352    1.8044   -2.9158 H       1  UNL1        0.0807
     47 H           3.8697    1.3508   -2.1366 H       1  UNL1        0.0639
@<TRIPOS>BOND
     1     1     2    1
     2     2     3    2
     3     3     4    1
     4     4     5   ar
     5     5     6   ar
     6     6     7   ar
     7     7     8   ar
     8     8     9   ar
     9     9    10   ar
    10    10    11   ar
    11    11    12   ar
    12    12    13   ar
    13    13    14   ar
    14    14    15   ar
    15    15    16   ar
    16    16    17   ar
    17    17    18   ar
    18    18    19   ar
    19    19    20   ar
    20    20    21   ar
    21    21    22   ar
    22    22    23   ar
    23     2    24    1
    24    24    25   ar
    25    25    26   ar
    26    26    27   ar
    27    27    28   ar
    28    28    29   ar
    29    29    30   ar
    30    30    31   ar
    31     5     1    1
    32    18     6   ar
    33    23    19   ar
    34    31    24   ar
    35    23     4   ar
    36    31    27   ar
    37    11     7   ar
    38    17    12   ar
    39     1    32    1
    40     1    33    1
    41     3    34    1
    42     8    35    1
    43    10    36    1
    44    13    37    1
    45    14    38    1
    46    15    39    1
    47    16    40    1
    48    20    41    1
    49    21    42    1
    50    22    43    1
    51    26    44    1
    52    28    45    1
    53    29    46    1
    54    30    47    1
