@<TRIPOS>MOLECULE
*****
 45 52 0 0 0
SMALL
GASTEIGER

@<TRIPOS>ATOM
      1 C          -1.2082    1.1924   -0.0929 C.3     1  UNL1       -0.0001
      2 C          -2.4028    0.2229   -0.0587 C.2     1  UNL1       -0.0266
      3 C          -1.9753   -1.0555   -0.0125 C.2     1  UNL1       -0.0490
      4 C          -0.5386   -1.0234   -0.0131 C.ar    1  UNL1       -0.0099
      5 C          -0.0125    0.2753   -0.0595 C.ar    1  UNL1       -0.0268
      6 C           1.4128    0.5764   -0.0698 C.ar    1  UNL1       -0.0029
      7 C           2.0389    1.8589   -0.1156 C.ar    1  UNL1       -0.0022
      8 C           1.3635    3.0584   -0.1589 C.ar    1  UNL1       -0.0160
      9 S           2.4140    4.4130   -0.2071 S.2     1  UNL1       -0.1038
     10 C           3.7998    3.4116   -0.1706 C.ar    1  UNL1       -0.0160
     11 C           3.4723    2.0738   -0.1228 C.ar    1  UNL1       -0.0011
     12 C           4.4466    1.0392   -0.0853 C.ar    1  UNL1        0.0092
     13 C           5.8518    1.2237   -0.0913 C.ar    1  UNL1       -0.0505
     14 C           6.6857    0.1208   -0.0514 C.ar    1  UNL1       -0.0430
     15 C           6.0923   -1.1199   -0.0071 C.ar    1  UNL1        0.0283
     16 N           4.7536   -1.3200   -0.0005 N.ar    1  UNL1       -0.2543
     17 C           3.8986   -0.2717   -0.0384 C.ar    1  UNL1        0.0799
     18 C           2.4566   -0.4723   -0.0317 C.ar    1  UNL1        0.0197
     19 C           1.8291   -1.7602    0.0143 C.ar    1  UNL1        0.0302
     20 C           2.4059   -3.0082    0.0593 C.ar    1  UNL1        0.1001
     21 O           1.4455   -3.9825    0.0939 O.2     1  UNL1       -0.4698
     22 C           0.2306   -3.3614    0.0711 C.ar    1  UNL1        0.1000
     23 C           0.4189   -2.0079    0.0227 C.ar    1  UNL1        0.0279
     24 C          -3.8009    0.5581   -0.0714 C.ar    1  UNL1        0.0431
     25 S          -4.2418    2.2467   -0.1226 S.2     1  UNL1       -0.0926
     26 C          -5.9189    1.9284   -0.1162 C.ar    1  UNL1        0.0038
     27 C          -6.1689    0.5848   -0.0770 C.ar    1  UNL1        0.0968
     28 N          -7.4331    0.0781   -0.0646 N.ar    1  UNL1       -0.2514
     29 C          -7.4071   -1.2803   -0.0246 C.ar    1  UNL1        0.0464
     30 C          -6.2471   -2.0606    0.0006 C.ar    1  UNL1        0.0464
     31 N          -4.9760   -1.5770   -0.0110 N.ar    1  UNL1       -0.2508
     32 C          -4.9595   -0.2096   -0.0511 C.ar    1  UNL1        0.1036
     33 H          -1.2232    1.7732   -1.0205 H       1  UNL1        0.0362
     34 H          -1.2238    1.8380    0.7909 H       1  UNL1        0.0362
     35 H          -2.5545   -1.9633    0.0201 H       1  UNL1        0.0627
     36 H           0.3067    3.2648   -0.1667 H       1  UNL1        0.0700
     37 H           4.7730    3.8804   -0.1871 H       1  UNL1        0.0700
     38 H           6.2939    2.2138   -0.1267 H       1  UNL1        0.0625
     39 H           7.7642    0.2253   -0.0547 H       1  UNL1        0.0633
     40 H           6.6912   -2.0260    0.0256 H       1  UNL1        0.0830
     41 H           3.4213   -3.3778    0.0729 H       1  UNL1        0.1036
     42 H          -0.6299   -4.0145    0.0942 H       1  UNL1        0.1036
     43 H          -6.6391    2.7331   -0.1414 H       1  UNL1        0.0715
     44 H          -8.3841   -1.7554   -0.0126 H       1  UNL1        0.0845
     45 H          -6.3213   -3.1441    0.0323 H       1  UNL1        0.0845
@<TRIPOS>BOND
     1     1     2    1
     2     2     3    2
     3     3     4    1
     4     4     5   ar
     5     5     6   ar
     6     6     7   ar
     7     7     8   ar
     8     8     9   ar
     9     9    10   ar
    10    10    11   ar
    11    11    12   ar
    12    12    13   ar
    13    13    14   ar
    14    14    15   ar
    15    15    16   ar
    16    16    17   ar
    17    17    18   ar
    18    18    19   ar
    19    19    20   ar
    20    20    21   ar
    21    21    22   ar
    22    22    23   ar
    23     2    24    1
    24    24    25   ar
    25    25    26   ar
    26    26    27   ar
    27    27    28   ar
    28    28    29   ar
    29    29    30   ar
    30    30    31   ar
    31    31    32   ar
    32     5     1    1
    33    18     6   ar
    34    23    19   ar
    35    32    24   ar
    36    23     4   ar
    37    32    27   ar
    38    11     7   ar
    39    17    12   ar
    40     1    33    1
    41     1    34    1
    42     3    35    1
    43     8    36    1
    44    10    37    1
    45    13    38    1
    46    14    39    1
    47    15    40    1
    48    20    41    1
    49    22    42    1
    50    26    43    1
    51    29    44    1
    52    30    45    1
