@<TRIPOS>MOLECULE
*****
 43 49 0 0 0
SMALL
GASTEIGER

@<TRIPOS>ATOM
      1 C           1.6278    1.0407    0.0532 C.3     1  UNL1        0.0000
      2 C           2.7074   -0.0040   -0.0400 C.2     1  UNL1        0.0000
      3 C           2.1365   -1.2123   -0.1838 C.2     1  UNL1        0.0000
      4 C           0.6958   -1.0811   -0.1980 C.ar    1  UNL1        0.0000
      5 C           0.3720    0.2184   -0.0620 C.ar    1  UNL1        0.0000
      6 C          -1.0213    0.6974   -0.0374 C.ar    1  UNL1        0.0000
      7 C          -1.2821    2.1031    0.1115 C.ar    1  UNL1        0.0000
      8 N          -0.3844    3.1000    0.2393 N.ar    1  UNL1        0.0000
      9 S          -1.2267    4.5163    0.3774 S.2     1  UNL1        0.0000
     10 N          -2.7790    3.9548    0.2839 N.ar    1  UNL1        0.0000
     11 C          -2.6972    2.6208    0.1393 C.ar    1  UNL1        0.0000
     12 C          -3.7693    1.7140    0.0177 C.ar    1  UNL1        0.0000
     13 C          -5.1731    2.1433    0.0356 C.2     1  UNL1        0.0000
     14 C          -6.0392    1.1271   -0.0940 C.2     1  UNL1        0.0000
     15 SI         -5.1872   -0.5196   -0.2570 Si      1  UNL1        0.0000
     16 C          -3.4756    0.3146   -0.1297 C.ar    1  UNL1        0.0000
     17 C          -2.1498   -0.2107   -0.1599 C.ar    1  UNL1        0.0000
     18 C          -1.7840   -1.6705   -0.3122 C.ar    1  UNL1        0.0000
     19 C          -2.6028   -2.7374   -0.4448 C.2     1  UNL1        0.0000
     20 SI         -1.6683   -4.3603   -0.6038 Si      1  UNL1        0.0000
     21 C          -0.1029   -3.3895   -0.4666 C.2     1  UNL1        0.0000
     22 C          -0.3436   -2.0704   -0.3272 C.ar    1  UNL1        0.0000
     23 C           4.1403    0.2842    0.0199 C.ar    1  UNL1        0.0000
     24 C           4.6275    1.5801    0.1719 C.ar    1  UNL1        0.0000
     25 C           6.0055    1.7858    0.2215 C.ar    1  UNL1        0.0000
     26 C           6.8609    0.6975    0.1188 C.ar    1  UNL1        0.0000
     27 C           6.2992   -0.5574   -0.0301 C.ar    1  UNL1        0.0000
     28 N           4.9685   -0.7851   -0.0812 N.ar    1  UNL1        0.0000
     29 H           1.7127    1.7540   -0.7736 H       1  UNL1        0.0000
     30 H           1.6771    1.5574    1.0177 H       1  UNL1        0.0000
     31 H           2.6645   -2.1496   -0.2762 H       1  UNL1        0.0000
     32 H          -5.4511    3.1843    0.1441 H       1  UNL1        0.0000
     33 H          -7.1155    1.2078   -0.1075 H       1  UNL1        0.0000
     34 H          -5.4682   -1.4085    0.8975 H       1  UNL1        0.0000
     35 H          -5.4164   -1.1357   -1.5875 H       1  UNL1        0.0000
     36 H          -3.6703   -2.8085   -0.4734 H       1  UNL1        0.0000
     37 H          -1.9108   -5.2502    0.5567 H       1  UNL1        0.0000
     38 H          -1.8614   -4.9775   -1.9377 H       1  UNL1        0.0000
     39 H           0.8603   -3.8738   -0.5003 H       1  UNL1        0.0000
     40 H           3.9603    2.4312    0.2523 H       1  UNL1        0.0000
     41 H           6.4047    2.7891    0.3396 H       1  UNL1        0.0000
     42 H           7.9369    0.8230    0.1537 H       1  UNL1        0.0000
     43 H           6.9219   -1.4432   -0.1152 H       1  UNL1        0.0000
@<TRIPOS>BOND
     1     1     2    1
     2     2     3    2
     3     3     4    1
     4     4     5   ar
     5     5     6   ar
     6     6     7   ar
     7     7     8   ar
     8     8     9   ar
     9     9    10   ar
    10    10    11   ar
    11    11    12   ar
    12    12    13    1
    13    13    14    2
    14    14    15    1
    15    15    16    1
    16    16    17   ar
    17    17    18   ar
    18    18    19    2
    19    19    20    1
    20    20    21    1
    21    21    22    2
    22     2    23    1
    23    23    24   ar
    24    24    25   ar
    25    25    26   ar
    26    26    27   ar
    27    27    28   ar
    28     5     1    1
    29    17     6   ar
    30    22    18   ar
    31    28    23   ar
    32    22     4   ar
    33    11     7   ar
    34    16    12   ar
    35     1    29    1
    36     1    30    1
    37     3    31    1
    38    13    32    1
    39    14    33    1
    40    15    34    1
    41    15    35    1
    42    19    36    1
    43    20    37    1
    44    20    38    1
    45    21    39    1
    46    24    40    1
    47    25    41    1
    48    26    42    1
    49    27    43    1
