@<TRIPOS>MOLECULE
*****
 40 46 0 0 0
SMALL
GASTEIGER

@<TRIPOS>ATOM
      1 C           0.8070    0.6008   -0.0526 C.3     1  UNL1        0.0000
      2 C           1.5086   -0.7371   -0.2097 C.2     1  UNL1        0.0000
      3 C           0.5745   -1.7072   -0.1703 C.2     1  UNL1        0.0000
      4 C          -0.7449   -1.1380    0.0050 C.ar    1  UNL1        0.0000
      5 C          -0.6325    0.2036    0.0758 C.ar    1  UNL1        0.0000
      6 C          -1.7913    1.0882    0.2536 C.ar    1  UNL1        0.0000
      7 C          -1.6575    2.5053    0.3268 C.ar    1  UNL1        0.0000
      8 N          -0.5284    3.2344    0.2518 N.ar    1  UNL1        0.0000
      9 S          -0.9619    4.8268    0.3961 S.2     1  UNL1        0.0000
     10 N          -2.6051    4.6864    0.5621 N.ar    1  UNL1        0.0000
     11 C          -2.8815    3.3746    0.5105 C.ar    1  UNL1        0.0000
     12 C          -4.1731    2.8107    0.6130 C.ar    1  UNL1        0.0000
     13 C          -4.2528    1.4086    0.5349 C.ar    1  UNL1        0.0000
     14 C          -3.1223    0.5642    0.3627 C.ar    1  UNL1        0.0000
     15 C          -3.2605   -0.9207    0.2858 C.ar    1  UNL1        0.0000
     16 C          -4.4096   -1.6255    0.3644 C.2     1  UNL1        0.0000
     17 SI         -4.0942   -3.4678    0.2172 Si      1  UNL1        0.0000
     18 C          -2.2782   -3.0875    0.0476 C.2     1  UNL1        0.0000
     19 C          -2.0468   -1.7610    0.1049 C.ar    1  UNL1        0.0000
     20 C           2.9042   -0.9728   -0.3724 C.ar    1  UNL1        0.0000
     21 S           3.6182   -2.5687   -0.5482 S.2     1  UNL1        0.0000
     22 C           5.2410   -1.9778   -0.6832 C.ar    1  UNL1        0.0000
     23 C           5.1965   -0.6360   -0.5942 C.ar    1  UNL1        0.0000
     24 N           6.2551    0.2224   -0.6525 N.ar    1  UNL1        0.0000
     25 C           5.6149    1.4510   -0.5076 C.ar    1  UNL1        0.0000
     26 C           4.2188    1.2951   -0.3694 C.ar    1  UNL1        0.0000
     27 C           3.9411   -0.0982   -0.4274 C.ar    1  UNL1        0.0000
     28 H           0.9742    1.2232   -0.9380 H       1  UNL1        0.0000
     29 H           1.1637    1.1130    0.8473 H       1  UNL1        0.0000
     30 H           0.7365   -2.7710   -0.2532 H       1  UNL1        0.0000
     31 H          -5.0520    3.4306    0.7447 H       1  UNL1        0.0000
     32 H          -5.2465    0.9702    0.6135 H       1  UNL1        0.0000
     33 H          -5.4156   -1.2640    0.4936 H       1  UNL1        0.0000
     34 H          -4.4149   -4.1905    1.4713 H       1  UNL1        0.0000
     35 H          -4.6798   -4.0367   -1.0203 H       1  UNL1        0.0000
     36 H          -1.5517   -3.8741   -0.0781 H       1  UNL1        0.0000
     37 H           6.0902   -2.6330   -0.8143 H       1  UNL1        0.0000
     38 H           7.2353   -0.0020   -0.7705 H       1  UNL1        0.0000
     39 H           6.2090    2.3559   -0.5138 H       1  UNL1        0.0000
     40 H           3.5120    2.1047   -0.2437 H       1  UNL1        0.0000
@<TRIPOS>BOND
     1     1     2    1
     2     2     3    2
     3     3     4    1
     4     4     5   ar
     5     5     6   ar
     6     6     7   ar
     7     7     8   ar
     8     8     9   ar
     9     9    10   ar
    10    10    11   ar
    11    11    12   ar
    12    12    13   ar
    13    13    14   ar
    14    14    15   ar
    15    15    16    2
    16    16    17    1
    17    17    18    1
    18    18    19    2
    19     2    20    1
    20    20    21   ar
    21    21    22   ar
    22    22    23   ar
    23    23    24   ar
    24    24    25   ar
    25    25    26   ar
    26    26    27   ar
    27     5     1    1
    28    14     6   ar
    29    19    15   ar
    30    27    20   ar
    31    19     4   ar
    32    27    23   ar
    33    11     7   ar
    34     1    28    1
    35     1    29    1
    36     3    30    1
    37    12    31    1
    38    13    32    1
    39    16    33    1
    40    17    34    1
    41    17    35    1
    42    18    36    1
    43    22    37    1
    44    24    38    1
    45    25    39    1
    46    26    40    1
