@<TRIPOS>MOLECULE
*****
 42 48 0 0 0
SMALL
GASTEIGER

@<TRIPOS>ATOM
      1 C           0.7982    0.0896    0.1146 C.3     1  UNL1        0.0000
      2 C           1.6895   -1.1057    0.4780 C.2     1  UNL1        0.0000
      3 C           0.9322   -2.1660    0.8406 C.2     1  UNL1        0.0000
      4 C          -0.4515   -1.7738    0.7488 C.ar    1  UNL1        0.0000
      5 C          -0.5974   -0.4433    0.3218 C.ar    1  UNL1        0.0000
      6 C          -1.8455    0.2275    0.1360 C.ar    1  UNL1        0.0000
      7 C          -1.8891    1.5656   -0.2961 C.ar    1  UNL1        0.0000
      8 C          -3.1345    2.1903   -0.4672 C.ar    1  UNL1        0.0000
      9 N          -3.4315    3.4727   -0.8749 N.ar    1  UNL1        0.0000
     10 C          -4.7877    3.6598   -0.9016 C.ar    1  UNL1        0.0000
     11 C          -5.3811    2.4834   -0.5059 C.ar    1  UNL1        0.0000
     12 C          -4.3464    1.5474   -0.2287 C.ar    1  UNL1        0.0000
     13 C          -4.3334    0.2098    0.2040 C.ar    1  UNL1        0.0000
     14 C          -3.0896   -0.4484    0.3860 C.ar    1  UNL1        0.0000
     15 C          -2.9266   -1.8056    0.8212 C.ar    1  UNL1        0.0000
     16 C          -3.9542   -2.6684    1.1262 C.ar    1  UNL1        0.0000
     17 S          -3.3730   -4.2141    1.6119 S.2     1  UNL1        0.0000
     18 C          -1.7320   -3.7435    1.4184 C.ar    1  UNL1        0.0000
     19 C          -1.6384   -2.4418    0.9948 C.ar    1  UNL1        0.0000
     20 C           3.1290   -1.1501    0.4544 C.ar    1  UNL1        0.0000
     21 S           4.0106   -2.6077    0.8904 S.2     1  UNL1        0.0000
     22 C           5.5553   -1.9112    0.6298 C.ar    1  UNL1        0.0000
     23 C           5.4028   -0.6244    0.2280 C.ar    1  UNL1        0.0000
     24 SI          6.5760    0.7694   -0.2429 Si      1  UNL1        0.0000
     25 C           5.0470    1.8625   -0.5469 C.2     1  UNL1        0.0000
     26 C           3.8989    1.1922   -0.3049 C.2     1  UNL1        0.0000
     27 C           4.0553   -0.1733    0.1216 C.ar    1  UNL1        0.0000
     28 H           0.9872    0.9314    0.7883 H       1  UNL1        0.0000
     29 H           0.9445    0.3767   -0.9315 H       1  UNL1        0.0000
     30 H           1.2479   -3.1485    1.1503 H       1  UNL1        0.0000
     31 H          -0.9779    2.1199   -0.4983 H       1  UNL1        0.0000
     32 H          -2.7426    4.1709   -1.1183 H       1  UNL1        0.0000
     33 H          -5.2119    4.6096   -1.1985 H       1  UNL1        0.0000
     34 H          -6.4461    2.3109   -0.4234 H       1  UNL1        0.0000
     35 H          -5.2734   -0.2967    0.3915 H       1  UNL1        0.0000
     36 H          -5.0207   -2.4991    1.0982 H       1  UNL1        0.0000
     37 H          -0.9416   -4.4508    1.6275 H       1  UNL1        0.0000
     38 H           6.4574   -2.4865    0.7872 H       1  UNL1        0.0000
     39 H           7.3224    0.5345   -1.5038 H       1  UNL1        0.0000
     40 H           7.3862    1.2885    0.8869 H       1  UNL1        0.0000
     41 H           5.1532    2.8849   -0.8721 H       1  UNL1        0.0000
     42 H           2.9325    1.6614   -0.4271 H       1  UNL1        0.0000
@<TRIPOS>BOND
     1     1     2    1
     2     2     3    2
     3     3     4    1
     4     4     5   ar
     5     5     6   ar
     6     6     7   ar
     7     7     8   ar
     8     8     9   ar
     9     9    10   ar
    10    10    11   ar
    11    11    12   ar
    12    12    13   ar
    13    13    14   ar
    14    14    15   ar
    15    15    16   ar
    16    16    17   ar
    17    17    18   ar
    18    18    19   ar
    19     2    20    1
    20    20    21   ar
    21    21    22   ar
    22    22    23   ar
    23    23    24    1
    24    24    25    1
    25    25    26    2
    26    26    27    1
    27     5     1    1
    28    14     6   ar
    29    19    15   ar
    30    27    20   ar
    31    19     4   ar
    32    27    23   ar
    33    12     8   ar
    34     1    28    1
    35     1    29    1
    36     3    30    1
    37     7    31    1
    38     9    32    1
    39    10    33    1
    40    11    34    1
    41    13    35    1
    42    16    36    1
    43    18    37    1
    44    22    38    1
    45    24    39    1
    46    24    40    1
    47    25    41    1
    48    26    42    1
