@<TRIPOS>MOLECULE
*****
 45 51 0 0 0
SMALL
GASTEIGER

@<TRIPOS>ATOM
      1 C          -1.1257    0.7025   -0.0042 C.3     1  UNL1        0.0000
      2 C          -2.2732   -0.2885   -0.0847 C.2     1  UNL1        0.0000
      3 C          -1.8017   -1.5505   -0.0523 C.2     1  UNL1        0.0000
      4 C          -0.3415   -1.5297    0.0497 C.ar    1  UNL1        0.0000
      5 C           0.0764   -0.1950    0.0794 C.ar    1  UNL1        0.0000
      6 C           1.4201    0.1594    0.1735 C.ar    1  UNL1        0.0000
      7 C           1.8068    1.5164    0.2011 C.ar    1  UNL1        0.0000
      8 C           3.1500    1.8499    0.2952 C.ar    1  UNL1        0.0000
      9 SI          3.9602    3.5400    0.3525 Si      1  UNL1        0.0000
     10 C           5.6219    2.6711    0.4685 C.2     1  UNL1        0.0000
     11 C           5.5141    1.3300    0.4605 C.2     1  UNL1        0.0000
     12 C           4.1271    0.8449    0.3632 C.ar    1  UNL1        0.0000
     13 C           3.7515   -0.4956    0.3364 C.ar    1  UNL1        0.0000
     14 C           2.3888   -0.8876    0.2409 C.ar    1  UNL1        0.0000
     15 C           1.9564   -2.2724    0.2101 C.ar    1  UNL1        0.0000
     16 C           2.8498   -3.3739    0.2722 C.ar    1  UNL1        0.0000
     17 C           2.4162   -4.7026    0.2413 C.ar    1  UNL1        0.0000
     18 C           1.0649   -4.9838    0.1467 C.ar    1  UNL1        0.0000
     19 C           0.1518   -3.9354    0.0832 C.ar    1  UNL1        0.0000
     20 C           0.5717   -2.5861    0.1131 C.ar    1  UNL1        0.0000
     21 C          -3.6628    0.0279   -0.1815 C.ar    1  UNL1        0.0000
     22 S          -4.9424   -1.1750   -0.2714 S.2     1  UNL1        0.0000
     23 C          -6.2203   -0.0102   -0.3598 C.ar    1  UNL1        0.0000
     24 C          -5.6620    1.2132   -0.3202 C.ar    1  UNL1        0.0000
     25 N          -6.3156    2.4097   -0.3650 N.ar    1  UNL1        0.0000
     26 C          -5.2494    3.3027   -0.2902 C.ar    1  UNL1        0.0000
     27 C          -4.0129    2.6273   -0.2044 C.ar    1  UNL1        0.0000
     28 C          -4.2893    1.2322   -0.2245 C.ar    1  UNL1        0.0000
     29 H          -1.0858    1.3238   -0.9048 H       1  UNL1        0.0000
     30 H          -1.2114    1.3231    0.8937 H       1  UNL1        0.0000
     31 H          -2.3733   -2.4632   -0.0926 H       1  UNL1        0.0000
     32 H           1.0625    2.3070    0.1493 H       1  UNL1        0.0000
     33 H           3.8098    4.2970   -0.9153 H       1  UNL1        0.0000
     34 H           3.6346    4.2961    1.5876 H       1  UNL1        0.0000
     35 H           6.5381    3.2376    0.5329 H       1  UNL1        0.0000
     36 H           6.3504    0.6464    0.5188 H       1  UNL1        0.0000
     37 H           4.5420   -1.2365    0.3914 H       1  UNL1        0.0000
     38 H           3.9222   -3.2187    0.3472 H       1  UNL1        0.0000
     39 H           3.1405   -5.5114    0.2916 H       1  UNL1        0.0000
     40 H           0.7180   -6.0131    0.1219 H       1  UNL1        0.0000
     41 H          -0.9033   -4.1867    0.0093 H       1  UNL1        0.0000
     42 H          -7.2611   -0.2918   -0.4324 H       1  UNL1        0.0000
     43 H          -7.3124    2.5744   -0.4344 H       1  UNL1        0.0000
     44 H          -5.4543    4.3656   -0.3038 H       1  UNL1        0.0000
     45 H          -3.0474    3.1096   -0.1368 H       1  UNL1        0.0000
@<TRIPOS>BOND
     1     1     2    1
     2     2     3    2
     3     3     4    1
     4     4     5   ar
     5     5     6   ar
     6     6     7   ar
     7     7     8   ar
     8     8     9    1
     9     9    10    1
    10    10    11    2
    11    11    12    1
    12    12    13   ar
    13    13    14   ar
    14    14    15   ar
    15    15    16   ar
    16    16    17   ar
    17    17    18   ar
    18    18    19   ar
    19    19    20   ar
    20     2    21    1
    21    21    22   ar
    22    22    23   ar
    23    23    24   ar
    24    24    25   ar
    25    25    26   ar
    26    26    27   ar
    27    27    28   ar
    28     5     1    1
    29    14     6   ar
    30    20    15   ar
    31    28    21   ar
    32    20     4   ar
    33    28    24   ar
    34    12     8   ar
    35     1    29    1
    36     1    30    1
    37     3    31    1
    38     7    32    1
    39     9    33    1
    40     9    34    1
    41    10    35    1
    42    11    36    1
    43    13    37    1
    44    16    38    1
    45    17    39    1
    46    18    40    1
    47    19    41    1
    48    23    42    1
    49    25    43    1
    50    26    44    1
    51    27    45    1
