@<TRIPOS>MOLECULE
*****
 44 50 0 0 0
SMALL
GASTEIGER

@<TRIPOS>ATOM
      1 C           1.9559    0.7536   -0.2689 C.3     1  UNL1        0.0000
      2 C           3.4078    0.2566   -0.1585 C.2     1  UNL1        0.0000
      3 C           3.4550   -1.0473    0.1927 C.2     1  UNL1        0.0000
      4 C           2.0969   -1.4957    0.3361 C.ar    1  UNL1        0.0000
      5 C           1.1566   -0.4789    0.0769 C.ar    1  UNL1        0.0000
      6 C          -0.2710   -0.6339    0.1421 C.ar    1  UNL1        0.0000
      7 C          -1.1484    0.4297   -0.1306 C.ar    1  UNL1        0.0000
      8 C          -2.5462    0.2750   -0.0659 C.ar    1  UNL1        0.0000
      9 C          -3.1050   -0.9836    0.2830 C.ar    1  UNL1        0.0000
     10 C          -4.5722   -1.1811    0.3604 C.ar    1  UNL1        0.0000
     11 C          -5.4370   -0.1846    0.1057 C.ar    1  UNL1        0.0000
     12 C          -4.9453    1.1255   -0.2560 C.ar    1  UNL1        0.0000
     13 C          -5.7354    2.1812   -0.5279 C.2     1  UNL1        0.0000
     14 SI         -4.7159    3.6878   -0.9513 Si      1  UNL1        0.0000
     15 C          -3.1754    2.6502   -0.6967 C.2     1  UNL1        0.0000
     16 C          -3.4909    1.3843   -0.3498 C.ar    1  UNL1        0.0000
     17 C          -2.2628   -2.0642    0.5610 C.ar    1  UNL1        0.0000
     18 C          -0.8633   -1.8973    0.4930 C.ar    1  UNL1        0.0000
     19 C           0.1119   -2.9011    0.7481 C.ar    1  UNL1        0.0000
     20 C          -0.0663   -4.2128    1.1052 C.ar    1  UNL1        0.0000
     21 O           1.1520   -4.8238    1.2503 O.2     1  UNL1        0.0000
     22 C           2.1198   -3.8920    0.9828 C.ar    1  UNL1        0.0000
     23 C           1.5240   -2.7020    0.6712 C.ar    1  UNL1        0.0000
     24 C           4.6079    1.0069   -0.3808 C.ar    1  UNL1        0.0000
     25 C           5.9403    0.6264   -0.3019 C.ar    1  UNL1        0.0000
     26 C           6.8520    1.6810   -0.6007 C.ar    1  UNL1        0.0000
     27 C           6.1990    2.8510   -0.9033 C.ar    1  UNL1        0.0000
     28 S           4.5045    2.6744   -0.8265 S.2     1  UNL1        0.0000
     29 H           1.7342    1.0823   -1.2892 H       1  UNL1        0.0000
     30 H           1.7627    1.5529    0.4537 H       1  UNL1        0.0000
     31 H           4.3161   -1.6752    0.3482 H       1  UNL1        0.0000
     32 H          -0.7354    1.3979   -0.3988 H       1  UNL1        0.0000
     33 H          -4.9409   -2.1648    0.6320 H       1  UNL1        0.0000
     34 H          -6.5075   -0.3485    0.1675 H       1  UNL1        0.0000
     35 H          -6.8131    2.2131   -0.5188 H       1  UNL1        0.0000
     36 H          -4.8433    4.7645    0.0602 H       1  UNL1        0.0000
     37 H          -4.8832    4.1106   -2.3627 H       1  UNL1        0.0000
     38 H          -2.2001    3.0864   -0.8305 H       1  UNL1        0.0000
     39 H          -2.6821   -3.0296    0.8285 H       1  UNL1        0.0000
     40 H          -0.9225   -4.8453    1.2901 H       1  UNL1        0.0000
     41 H           3.1388   -4.2425    1.0608 H       1  UNL1        0.0000
     42 H           6.2613   -0.3739   -0.0392 H       1  UNL1        0.0000
     43 H           7.9305    1.5826   -0.5931 H       1  UNL1        0.0000
     44 H           6.6357    3.8044   -1.1667 H       1  UNL1        0.0000
@<TRIPOS>BOND
     1     1     2    1
     2     2     3    2
     3     3     4    1
     4     4     5   ar
     5     5     6   ar
     6     6     7   ar
     7     7     8   ar
     8     8     9   ar
     9     9    10   ar
    10    10    11   ar
    11    11    12   ar
    12    12    13    2
    13    13    14    1
    14    14    15    1
    15    15    16    2
    16     9    17   ar
    17    17    18   ar
    18    18    19   ar
    19    19    20   ar
    20    20    21   ar
    21    21    22   ar
    22    22    23   ar
    23     2    24    1
    24    24    25   ar
    25    25    26   ar
    26    26    27   ar
    27    27    28   ar
    28     5     1    1
    29    18     6   ar
    30    23    19   ar
    31    28    24   ar
    32    23     4   ar
    33    16     8   ar
    34    16    12   ar
    35     1    29    1
    36     1    30    1
    37     3    31    1
    38     7    32    1
    39    10    33    1
    40    11    34    1
    41    13    35    1
    42    14    36    1
    43    14    37    1
    44    15    38    1
    45    17    39    1
    46    20    40    1
    47    22    41    1
    48    25    42    1
    49    26    43    1
    50    27    44    1
