@<TRIPOS>MOLECULE
*****
 47 54 0 0 0
SMALL
GASTEIGER

@<TRIPOS>ATOM
      1 C          -0.9298    0.8645   -0.1514 C.3     1  UNL1        0.0000
      2 C          -2.3255    0.2197   -0.2488 C.2     1  UNL1        0.0000
      3 C          -2.2500   -1.1117   -0.0402 C.2     1  UNL1        0.0000
      4 C          -0.8665   -1.4411    0.2008 C.ar    1  UNL1        0.0000
      5 C          -0.0341   -0.3109    0.1479 C.ar    1  UNL1        0.0000
      6 C           1.3805   -0.3270    0.3465 C.ar    1  UNL1        0.0000
      7 C           2.1391    0.8485    0.2764 C.ar    1  UNL1        0.0000
      8 C           3.5411    0.8169    0.4755 C.ar    1  UNL1        0.0000
      9 C           4.4304    1.9143    0.4350 C.ar    1  UNL1        0.0000
     10 C           4.1524    3.2363    0.1992 C.ar    1  UNL1        0.0000
     11 O           5.3084    3.9687    0.2502 O.2     1  UNL1        0.0000
     12 C           6.3332    3.1031    0.5214 C.ar    1  UNL1        0.0000
     13 C           5.8361    1.8335    0.6420 C.ar    1  UNL1        0.0000
     14 C           6.5547    0.6813    0.9135 C.ar    1  UNL1        0.0000
     15 C           5.6843   -0.4364    0.9595 C.ar    1  UNL1        0.0000
     16 C           4.2491   -0.3958    0.7545 C.ar    1  UNL1        0.0000
     17 C           3.4880   -1.5680    0.8238 C.ar    1  UNL1        0.0000
     18 C           2.0800   -1.5540    0.6264 C.ar    1  UNL1        0.0000
     19 C           1.2159   -2.6985    0.6772 C.ar    1  UNL1        0.0000
     20 C           1.6253   -3.9884    0.9262 C.ar    1  UNL1        0.0000
     21 S           0.3082   -5.0963    0.9087 S.2     1  UNL1        0.0000
     22 C          -0.8305   -3.8565    0.5658 C.ar    1  UNL1        0.0000
     23 C          -0.2157   -2.6335    0.4688 C.ar    1  UNL1        0.0000
     24 C          -3.5640    0.8911   -0.5205 C.ar    1  UNL1        0.0000
     25 S          -3.5230    2.6283   -0.7773 S.2     1  UNL1        0.0000
     26 C          -5.2157    2.7590   -1.0296 C.ar    1  UNL1        0.0000
     27 C          -5.8120    1.5357   -0.9267 C.ar    1  UNL1        0.0000
     28 C          -7.1920    1.1795   -1.0624 C.2     1  UNL1        0.0000
     29 C          -7.4594   -0.1332   -0.9007 C.2     1  UNL1        0.0000
     30 SI         -5.8716   -1.1120   -0.5346 Si      1  UNL1        0.0000
     31 C          -4.8750    0.4975   -0.6411 C.ar    1  UNL1        0.0000
     32 H          -0.6490    1.3276   -1.1029 H       1  UNL1        0.0000
     33 H          -0.8944    1.5913    0.6667 H       1  UNL1        0.0000
     34 H          -3.0298   -1.8495   -0.0388 H       1  UNL1        0.0000
     35 H           1.6584    1.8003    0.0678 H       1  UNL1        0.0000
     36 H           3.2571    3.8040   -0.0096 H       1  UNL1        0.0000
     37 H           7.3145    3.5505    0.5907 H       1  UNL1        0.0000
     38 H           7.6215    0.6159    1.0712 H       1  UNL1        0.0000
     39 H           6.1434   -1.4056    1.1677 H       1  UNL1        0.0000
     40 H           3.9886   -2.5097    1.0336 H       1  UNL1        0.0000
     41 H           2.6183   -4.3668    1.1204 H       1  UNL1        0.0000
     42 H          -1.8768   -4.1049    0.4577 H       1  UNL1        0.0000
     43 H          -5.6658    3.7197   -1.2365 H       1  UNL1        0.0000
     44 H          -7.9564    1.9172   -1.2789 H       1  UNL1        0.0000
     45 H          -8.4188   -0.6212   -0.9587 H       1  UNL1        0.0000
     46 H          -5.9043   -1.7068    0.8249 H       1  UNL1        0.0000
     47 H          -5.5682   -2.0766   -1.6211 H       1  UNL1        0.0000
@<TRIPOS>BOND
     1     1     2    1
     2     2     3    2
     3     3     4    1
     4     4     5   ar
     5     5     6   ar
     6     6     7   ar
     7     7     8   ar
     8     8     9   ar
     9     9    10   ar
    10    10    11   ar
    11    11    12   ar
    12    12    13   ar
    13    13    14   ar
    14    14    15   ar
    15    15    16   ar
    16    16    17   ar
    17    17    18   ar
    18    18    19   ar
    19    19    20   ar
    20    20    21   ar
    21    21    22   ar
    22    22    23   ar
    23     2    24    1
    24    24    25   ar
    25    25    26   ar
    26    26    27   ar
    27    27    28    1
    28    28    29    2
    29    29    30    1
    30    30    31    1
    31     5     1    1
    32    18     6   ar
    33    23    19   ar
    34    31    24   ar
    35    23     4   ar
    36    31    27   ar
    37    16     8   ar
    38    13     9   ar
    39     1    32    1
    40     1    33    1
    41     3    34    1
    42     7    35    1
    43    10    36    1
    44    12    37    1
    45    14    38    1
    46    15    39    1
    47    17    40    1
    48    20    41    1
    49    22    42    1
    50    26    43    1
    51    28    44    1
    52    29    45    1
    53    30    46    1
    54    30    47    1
