@<TRIPOS>MOLECULE
*****
 43 49 0 0 0
SMALL
GASTEIGER

@<TRIPOS>ATOM
      1 C           1.5580   -0.6883    0.0069 C.3     1  UNL1        0.0000
      2 C           2.7696    0.2487    0.1001 C.2     1  UNL1        0.0000
      3 C           2.3973    1.5448    0.1383 C.2     1  UNL1        0.0000
      4 C           0.9603    1.5678    0.0756 C.ar    1  UNL1        0.0000
      5 C           0.3990    0.2784   -0.0035 C.ar    1  UNL1        0.0000
      6 C          -1.0057   -0.0046   -0.0774 C.ar    1  UNL1        0.0000
      7 C          -1.4938   -1.3155   -0.1541 C.ar    1  UNL1        0.0000
      8 C          -2.8837   -1.5780   -0.2264 C.ar    1  UNL1        0.0000
      9 C          -3.4094   -2.9126   -0.3057 C.ar    1  UNL1        0.0000
     10 N          -2.7044   -4.0595   -0.3228 N.ar    1  UNL1        0.0000
     11 S          -3.8062   -5.2958   -0.4233 S.2     1  UNL1        0.0000
     12 N          -5.2301   -4.4439   -0.4502 N.ar    1  UNL1        0.0000
     13 C          -4.8968   -3.1460   -0.3810 C.ar    1  UNL1        0.0000
     14 C          -5.8061   -2.0653   -0.3755 C.ar    1  UNL1        0.0000
     15 C          -5.2414   -0.7784   -0.2966 C.ar    1  UNL1        0.0000
     16 C          -3.8440   -0.5245   -0.2244 C.ar    1  UNL1        0.0000
     17 C          -3.3688    0.7889   -0.1482 C.ar    1  UNL1        0.0000
     18 C          -1.9796    1.0549   -0.0758 C.ar    1  UNL1        0.0000
     19 C          -1.3812    2.3462    0.0050 C.ar    1  UNL1        0.0000
     20 C          -1.9987    3.5734    0.0294 C.ar    1  UNL1        0.0000
     21 N          -1.0064    4.5314    0.1135 N.ar    1  UNL1        0.0000
     22 C           0.2374    3.9356    0.1434 C.ar    1  UNL1        0.0000
     23 C           0.0276    2.5836    0.0772 C.ar    1  UNL1        0.0000
     24 C           4.1106   -0.2880    0.1371 C.2     1  UNL1        0.0000
     25 C           4.4713   -1.5910    0.0954 C.2     1  UNL1        0.0000
     26 C           5.8991   -1.8684    0.1483 C.2     1  UNL1        0.0000
     27 C           6.6936   -0.7877    0.2331 C.2     1  UNL1        0.0000
     28 SI          5.6834    0.7910    0.2575 Si      1  UNL1        0.0000
     29 H           1.5815   -1.2688   -0.9212 H       1  UNL1        0.0000
     30 H           1.5018   -1.3451    0.8811 H       1  UNL1        0.0000
     31 H           3.0050    2.4308    0.2026 H       1  UNL1        0.0000
     32 H          -0.8026   -2.1565   -0.1591 H       1  UNL1        0.0000
     33 H          -6.8764   -2.2238   -0.4293 H       1  UNL1        0.0000
     34 H          -5.9315    0.0675   -0.2914 H       1  UNL1        0.0000
     35 H          -4.0672    1.6221   -0.1439 H       1  UNL1        0.0000
     36 H          -3.0376    3.8697   -0.0040 H       1  UNL1        0.0000
     37 H          -1.1692    5.5294    0.1484 H       1  UNL1        0.0000
     38 H           1.1362    4.5331    0.2083 H       1  UNL1        0.0000
     39 H           3.7749   -2.4181    0.0267 H       1  UNL1        0.0000
     40 H           6.2679   -2.8866    0.1195 H       1  UNL1        0.0000
     41 H           7.7707   -0.7754    0.2829 H       1  UNL1        0.0000
     42 H           5.7904    1.5059    1.5546 H       1  UNL1        0.0000
     43 H           5.9053    1.6186   -0.9552 H       1  UNL1        0.0000
@<TRIPOS>BOND
     1     1     2    1
     2     2     3    2
     3     3     4    1
     4     4     5   ar
     5     5     6   ar
     6     6     7   ar
     7     7     8   ar
     8     8     9   ar
     9     9    10   ar
    10    10    11   ar
    11    11    12   ar
    12    12    13   ar
    13    13    14   ar
    14    14    15   ar
    15    15    16   ar
    16    16    17   ar
    17    17    18   ar
    18    18    19   ar
    19    19    20   ar
    20    20    21   ar
    21    21    22   ar
    22    22    23   ar
    23     2    24    1
    24    24    25    2
    25    25    26    1
    26    26    27    2
    27    27    28    1
    28     5     1    1
    29    18     6   ar
    30    23    19   ar
    31    28    24    1
    32    23     4   ar
    33    16     8   ar
    34    13     9   ar
    35     1    29    1
    36     1    30    1
    37     3    31    1
    38     7    32    1
    39    14    33    1
    40    15    34    1
    41    17    35    1
    42    20    36    1
    43    21    37    1
    44    22    38    1
    45    25    39    1
    46    26    40    1
    47    27    41    1
    48    28    42    1
    49    28    43    1
