@<TRIPOS>MOLECULE
*****
 45 51 0 0 0
SMALL
GASTEIGER

@<TRIPOS>ATOM
      1 SI          2.4246    0.5638    0.7654 Si      1  UNL1        0.0000
      2 C           1.1319   -0.7424    0.3180 C.2     1  UNL1        0.0000
      3 C           1.7289   -1.9092   -0.0068 C.2     1  UNL1        0.0000
      4 C           3.1855   -1.9073    0.0491 C.2     1  UNL1        0.0000
      5 C           3.7394   -0.7348    0.4146 C.2     1  UNL1        0.0000
      6 C           5.1180   -0.5123    0.5716 C.ar    1  UNL1        0.0000
      7 S           6.0633   -1.2654    1.8087 S.2     1  UNL1        0.0000
      8 C           7.5172   -0.4877    1.3125 C.ar    1  UNL1        0.0000
      9 C           7.2311    0.2847    0.2416 C.ar    1  UNL1        0.0000
     10 C           8.0171    1.1283   -0.5790 C.ar    1  UNL1        0.0000
     11 C           7.2687    1.7286   -1.5978 C.ar    1  UNL1        0.0000
     12 S           5.5582    1.3238   -1.6522 S.2     1  UNL1        0.0000
     13 C           5.9091    0.2959   -0.2049 C.ar    1  UNL1        0.0000
     14 C          -0.2694   -0.5466    0.3586 C.ar    1  UNL1        0.0000
     15 S          -1.0242    0.9782   -0.0890 S.2     1  UNL1        0.0000
     16 C          -2.6302    0.4127    0.1781 C.ar    1  UNL1        0.0000
     17 C          -3.7962    1.2354   -0.0246 C.ar    1  UNL1        0.0000
     18 C          -4.1244    2.3461    0.7891 C.ar    1  UNL1        0.0000
     19 C          -5.2954    3.1502    0.6051 C.ar    1  UNL1        0.0000
     20 C          -6.2537    2.9284   -0.4077 C.ar    1  UNL1        0.0000
     21 C          -5.9213    1.8372   -1.2112 C.ar    1  UNL1        0.0000
     22 C          -6.7017    1.4363   -2.2671 C.ar    1  UNL1        0.0000
     23 S          -6.0178    0.0765   -3.0651 S.2     1  UNL1        0.0000
     24 C          -4.6702    0.0312   -1.9969 C.ar    1  UNL1        0.0000
     25 C          -4.7448    1.0171   -1.0392 C.ar    1  UNL1        0.0000
     26 C          -2.5654   -0.8658    0.6000 C.ar    1  UNL1        0.0000
     27 N          -3.6038   -1.6851    0.9431 N.ar    1  UNL1        0.0000
     28 C          -2.9279   -2.8523    1.2879 C.ar    1  UNL1        0.0000
     29 C          -1.5316   -2.7025    1.1501 C.ar    1  UNL1        0.0000
     30 C          -1.2906   -1.3793    0.6896 C.ar    1  UNL1        0.0000
     31 H           2.3730    0.9483    2.2011 H       1  UNL1        0.0000
     32 H           2.4538    1.6977   -0.1951 H       1  UNL1        0.0000
     33 H           1.2010   -2.8098   -0.2973 H       1  UNL1        0.0000
     34 H           3.7461   -2.8041   -0.1871 H       1  UNL1        0.0000
     35 H           8.4534   -0.6547    1.8258 H       1  UNL1        0.0000
     36 H           9.0788    1.3046   -0.4570 H       1  UNL1        0.0000
     37 H           7.6348    2.4104   -2.3533 H       1  UNL1        0.0000
     38 H          -3.4549    2.6088    1.6096 H       1  UNL1        0.0000
     39 H          -5.4529    3.9841    1.2905 H       1  UNL1        0.0000
     40 H          -7.1308    3.5505   -0.5294 H       1  UNL1        0.0000
     41 H          -7.6304    1.8593   -2.6247 H       1  UNL1        0.0000
     42 H          -3.9049   -0.7190   -2.1451 H       1  UNL1        0.0000
     43 H          -4.5935   -1.4669    0.9363 H       1  UNL1        0.0000
     44 H          -3.4994   -3.7116    1.6148 H       1  UNL1        0.0000
     45 H          -0.7982   -3.4671    1.3692 H       1  UNL1        0.0000
@<TRIPOS>BOND
     1     1     2    1
     2     2     3    2
     3     3     4    1
     4     4     5    2
     5     5     6    1
     6     6     7   ar
     7     7     8   ar
     8     8     9   ar
     9     9    10   ar
    10    10    11   ar
    11    11    12   ar
    12    12    13   ar
    13     2    14    1
    14    14    15   ar
    15    15    16   ar
    16    16    17    1
    17    17    18   ar
    18    18    19   ar
    19    19    20   ar
    20    20    21   ar
    21    21    22   ar
    22    22    23   ar
    23    23    24   ar
    24    24    25   ar
    25    16    26   ar
    26    26    27   ar
    27    27    28   ar
    28    28    29   ar
    29    29    30   ar
    30     5     1    1
    31    13     6   ar
    32    30    14   ar
    33    13     9   ar
    34    25    17   ar
    35    30    26   ar
    36    25    21   ar
    37     1    31    1
    38     1    32    1
    39     3    33    1
    40     4    34    1
    41     8    35    1
    42    10    36    1
    43    11    37    1
    44    18    38    1
    45    19    39    1
    46    20    40    1
    47    22    41    1
    48    24    42    1
    49    27    43    1
    50    28    44    1
    51    29    45    1
