@<TRIPOS>MOLECULE
*****
 39 44 0 0 0
SMALL
GASTEIGER

@<TRIPOS>ATOM
      1 C           1.0882   -0.9237    0.0915 C.3     1  UNL1        0.0008
      2 C           2.2418    0.0575   -0.0669 C.2     1  UNL1       -0.0171
      3 C           1.8187    1.3224   -0.2657 C.2     1  UNL1       -0.0482
      4 C           0.3826    1.2783   -0.2545 C.ar    1  UNL1       -0.0115
      5 C          -0.1188   -0.0243   -0.0472 C.ar    1  UNL1       -0.0274
      6 C          -1.5087   -0.3731    0.0121 C.ar    1  UNL1       -0.0097
      7 C          -1.9162   -1.7010    0.2231 C.ar    1  UNL1       -0.0108
      8 C          -3.2867   -1.9665    0.2692 C.ar    1  UNL1        0.1354
      9 O          -3.8375   -3.1980    0.4655 O.2     1  UNL1       -0.4629
     10 C          -5.1860   -3.0375    0.4441 C.ar    1  UNL1        0.0931
     11 C          -5.5131   -1.7176    0.2365 C.ar    1  UNL1       -0.0161
     12 C          -4.2854   -1.0128    0.1214 C.ar    1  UNL1        0.0207
     13 C          -3.9162    0.3240   -0.0910 C.ar    1  UNL1       -0.0426
     14 C          -2.5327    0.6334   -0.1440 C.ar    1  UNL1       -0.0077
     15 C          -1.9938    1.9361   -0.3515 C.ar    1  UNL1        0.0077
     16 C          -2.6671    3.1198   -0.5365 C.ar    1  UNL1        0.0100
     17 N          -1.7187    4.1121   -0.6961 N.ar    1  UNL1       -0.3659
     18 C          -0.4484    3.5814   -0.6160 C.ar    1  UNL1        0.0100
     19 C          -0.5967    2.2366   -0.4031 C.ar    1  UNL1        0.0074
     20 C           3.6488   -0.3581   -0.0052 C.ar    1  UNL1        0.0673
     21 C           4.0228   -1.6839    0.2032 C.ar    1  UNL1       -0.0360
     22 C           5.3780   -2.0093    0.2509 C.ar    1  UNL1       -0.0583
     23 C           6.3254   -1.0081    0.0901 C.ar    1  UNL1       -0.0436
     24 C           5.8754    0.2833   -0.1127 C.ar    1  UNL1        0.0282
     25 N           4.5695    0.6254   -0.1632 N.ar    1  UNL1       -0.2553
     26 H           1.1018   -1.3941    1.0799 H       1  UNL1        0.0362
     27 H           1.0966   -1.6759   -0.7038 H       1  UNL1        0.0362
     28 H           2.4193    2.2058   -0.4070 H       1  UNL1        0.0627
     29 H          -1.2095   -2.5123    0.3493 H       1  UNL1        0.0661
     30 H          -5.7647   -3.9391    0.5884 H       1  UNL1        0.1029
     31 H          -6.5124   -1.3116    0.1753 H       1  UNL1        0.0655
     32 H          -4.6696    1.0942   -0.2104 H       1  UNL1        0.0631
     33 H          -3.7194    3.3639   -0.5720 H       1  UNL1        0.0813
     34 H          -1.9263    5.0901   -0.8501 H       1  UNL1        0.1648
     35 H           0.4247    4.2114   -0.7182 H       1  UNL1        0.0813
     36 H           3.2869   -2.4697    0.3295 H       1  UNL1        0.0639
     37 H           5.6883   -3.0377    0.4126 H       1  UNL1        0.0619
     38 H           7.3864   -1.2273    0.1218 H       1  UNL1        0.0633
     39 H           6.5725    1.1056   -0.2446 H       1  UNL1        0.0830
@<TRIPOS>BOND
     1     1     2    1
     2     2     3    2
     3     3     4    1
     4     4     5   ar
     5     5     6   ar
     6     6     7   ar
     7     7     8   ar
     8     8     9   ar
     9     9    10   ar
    10    10    11   ar
    11    11    12   ar
    12    12    13   ar
    13    13    14   ar
    14    14    15   ar
    15    15    16   ar
    16    16    17   ar
    17    17    18   ar
    18    18    19   ar
    19     2    20    1
    20    20    21   ar
    21    21    22   ar
    22    22    23   ar
    23    23    24   ar
    24    24    25   ar
    25     5     1    1
    26    14     6   ar
    27    19    15   ar
    28    25    20   ar
    29    19     4   ar
    30    12     8   ar
    31     1    26    1
    32     1    27    1
    33     3    28    1
    34     7    29    1
    35    10    30    1
    36    11    31    1
    37    13    32    1
    38    16    33    1
    39    17    34    1
    40    18    35    1
    41    21    36    1
    42    22    37    1
    43    23    38    1
    44    24    39    1
