@<TRIPOS>MOLECULE
*****
 40 45 0 0 0
SMALL
GASTEIGER

@<TRIPOS>ATOM
      1 C           1.5650    0.7151    0.1724 C.3     1  UNL1        0.0000
      2 C           2.4947   -0.4809    0.0156 C.2     1  UNL1        0.0000
      3 C           1.8213   -1.6376   -0.1392 C.2     1  UNL1        0.0000
      4 C           0.4185   -1.3040   -0.0977 C.ar    1  UNL1        0.0000
      5 C           0.1977    0.0701    0.0841 C.ar    1  UNL1        0.0000
      6 C          -1.0845    0.6914    0.1640 C.ar    1  UNL1        0.0000
      7 C          -1.1527    2.0869    0.3489 C.ar    1  UNL1        0.0000
      8 C          -2.3650    2.7724    0.4376 C.ar    1  UNL1        0.0000
      9 C          -3.5523    2.0667    0.3418 C.ar    1  UNL1        0.0000
     10 C          -4.8739    2.7137    0.4252 C.2     1  UNL1        0.0000
     11 C          -5.9057    1.8627    0.3104 C.2     1  UNL1        0.0000
     12 SI         -5.3490    0.1013    0.0778 Si      1  UNL1        0.0000
     13 C          -3.5471    0.6566    0.1548 C.ar    1  UNL1        0.0000
     14 C          -2.3200   -0.0668    0.0611 C.ar    1  UNL1        0.0000
     15 C          -2.0627   -1.4860   -0.1267 C.ar    1  UNL1        0.0000
     16 C          -3.0083   -2.4771   -0.2600 C.ar    1  UNL1        0.0000
     17 S          -2.3190   -4.0413   -0.4661 S.2     1  UNL1        0.0000
     18 C          -0.7248   -3.4250   -0.3813 C.ar    1  UNL1        0.0000
     19 C          -0.7298   -2.0642   -0.2008 C.ar    1  UNL1        0.0000
     20 C           3.9470   -0.2746    0.0461 C.ar    1  UNL1        0.0000
     21 C           4.8598   -1.3179   -0.0906 C.ar    1  UNL1        0.0000
     22 C           6.2248   -1.0364   -0.0503 C.ar    1  UNL1        0.0000
     23 C           6.6451    0.2745    0.1248 C.ar    1  UNL1        0.0000
     24 C           5.6773    1.2537    0.2528 C.ar    1  UNL1        0.0000
     25 N           4.3487    1.0084    0.2174 N.ar    1  UNL1        0.0000
     26 H           1.6996    1.1946    1.1476 H       1  UNL1        0.0000
     27 H           1.7033    1.4321   -0.6437 H       1  UNL1        0.0000
     28 H           2.2109   -2.6320   -0.2702 H       1  UNL1        0.0000
     29 H          -0.2414    2.6775    0.4290 H       1  UNL1        0.0000
     30 H          -2.3653    3.8492    0.5804 H       1  UNL1        0.0000
     31 H          -4.9736    3.7818    0.5666 H       1  UNL1        0.0000
     32 H          -6.9524    2.1225    0.3430 H       1  UNL1        0.0000
     33 H          -5.7253   -0.4392   -1.2524 H       1  UNL1        0.0000
     34 H          -5.7298   -0.7670    1.2200 H       1  UNL1        0.0000
     35 H          -4.0826   -2.4272   -0.2554 H       1  UNL1        0.0000
     36 H           0.1166   -4.0978   -0.4689 H       1  UNL1        0.0000
     37 H           4.5337   -2.3423   -0.2274 H       1  UNL1        0.0000
     38 H           6.9515   -1.8370   -0.1551 H       1  UNL1        0.0000
     39 H           7.6986    0.5271    0.1606 H       1  UNL1        0.0000
     40 H           5.9507    2.2957    0.3918 H       1  UNL1        0.0000
@<TRIPOS>BOND
     1     1     2    1
     2     2     3    2
     3     3     4    1
     4     4     5   ar
     5     5     6   ar
     6     6     7   ar
     7     7     8   ar
     8     8     9   ar
     9     9    10    1
    10    10    11    2
    11    11    12    1
    12    12    13    1
    13    13    14   ar
    14    14    15   ar
    15    15    16   ar
    16    16    17   ar
    17    17    18   ar
    18    18    19   ar
    19     2    20    1
    20    20    21   ar
    21    21    22   ar
    22    22    23   ar
    23    23    24   ar
    24    24    25   ar
    25     5     1    1
    26    14     6   ar
    27    19    15   ar
    28    25    20   ar
    29    19     4   ar
    30    13     9   ar
    31     1    26    1
    32     1    27    1
    33     3    28    1
    34     7    29    1
    35     8    30    1
    36    10    31    1
    37    11    32    1
    38    12    33    1
    39    12    34    1
    40    16    35    1
    41    18    36    1
    42    21    37    1
    43    22    38    1
    44    23    39    1
    45    24    40    1
