@<TRIPOS>MOLECULE
*****
 39 45 0 0 0
SMALL
GASTEIGER

@<TRIPOS>ATOM
      1 C           0.7690    0.6964    1.0799 C.3     1  UNL1       -0.0001
      2 C           1.9726    0.4733    0.1466 C.2     1  UNL1       -0.0252
      3 C           1.5908   -0.1384   -0.9954 C.2     1  UNL1       -0.0490
      4 C           0.1724   -0.3565   -0.9093 C.ar    1  UNL1       -0.0099
      5 C          -0.3793    0.1136    0.2935 C.ar    1  UNL1       -0.0275
      6 C          -1.7653    0.0290    0.6483 C.ar    1  UNL1       -0.0120
      7 C          -2.2141    0.5264    1.8691 C.ar    1  UNL1       -0.0531
      8 C          -3.5621    0.4520    2.2306 C.ar    1  UNL1       -0.0529
      9 C          -4.5233   -0.1307    1.3722 C.ar    1  UNL1       -0.0102
     10 C          -5.9366   -0.2927    1.5743 C.ar    1  UNL1       -0.0470
     11 C          -6.5596   -0.9074    0.5186 C.ar    1  UNL1       -0.0232
     12 S          -5.4636   -1.2946   -0.7187 S.2     1  UNL1       -0.0960
     13 C          -4.1034   -0.6422    0.1329 C.ar    1  UNL1        0.0277
     14 C          -2.7378   -0.5713   -0.2427 C.ar    1  UNL1        0.0074
     15 C          -2.1501   -1.0349   -1.4455 C.ar    1  UNL1        0.0292
     16 C          -2.7051   -1.6549   -2.5385 C.ar    1  UNL1        0.1000
     17 O          -1.7434   -1.9245   -3.4767 O.2     1  UNL1       -0.4698
     18 C          -0.5503   -1.4750   -2.9883 C.ar    1  UNL1        0.1000
     19 C          -0.7522   -0.9260   -1.7537 C.ar    1  UNL1        0.0279
     20 C           3.3231    0.8422    0.4042 C.ar    1  UNL1        0.0585
     21 S           3.8174    1.6337    1.8819 S.2     1  UNL1       -0.0926
     22 C           5.4892    1.7207    1.4216 C.ar    1  UNL1       -0.0129
     23 C           5.6031    1.1619    0.2002 C.ar    1  UNL1        0.0278
     24 C           6.5858    0.8852   -0.7612 C.ar    1  UNL1       -0.0156
     25 C           5.8968    0.2626   -1.8081 C.ar    1  UNL1        0.0932
     26 O           4.5399    0.1190   -1.5883 O.2     1  UNL1       -0.4618
     27 C           4.4362    0.6868   -0.3517 C.ar    1  UNL1        0.1492
     28 H           0.6112    1.7649    1.2586 H       1  UNL1        0.0362
     29 H           0.9049    0.1559    2.0222 H       1  UNL1        0.0362
     30 H           2.1897   -0.4307   -1.8418 H       1  UNL1        0.0627
     31 H          -1.5242    0.9865    2.5732 H       1  UNL1        0.0624
     32 H          -3.8753    0.8516    3.1930 H       1  UNL1        0.0624
     33 H          -6.4639    0.0326    2.4627 H       1  UNL1        0.0629
     34 H          -7.6092   -1.1471    0.4171 H       1  UNL1        0.0694
     35 H          -3.6964   -1.9716   -2.8247 H       1  UNL1        0.1036
     36 H           0.3059   -1.6236   -3.6307 H       1  UNL1        0.1036
     37 H           6.2329    2.1635    2.0684 H       1  UNL1        0.0701
     38 H           7.6455    1.0930   -0.7314 H       1  UNL1        0.0655
     39 H           6.2287   -0.1290   -2.7610 H       1  UNL1        0.1030
@<TRIPOS>BOND
     1     1     2    1
     2     2     3    2
     3     3     4    1
     4     4     5   ar
     5     5     6   ar
     6     6     7   ar
     7     7     8   ar
     8     8     9   ar
     9     9    10   ar
    10    10    11   ar
    11    11    12   ar
    12    12    13   ar
    13    13    14   ar
    14    14    15   ar
    15    15    16   ar
    16    16    17   ar
    17    17    18   ar
    18    18    19   ar
    19     2    20    1
    20    20    21   ar
    21    21    22   ar
    22    22    23   ar
    23    23    24   ar
    24    24    25   ar
    25    25    26   ar
    26    26    27   ar
    27     5     1    1
    28    14     6   ar
    29    19    15   ar
    30    27    20   ar
    31    19     4   ar
    32    27    23   ar
    33    13     9   ar
    34     1    28    1
    35     1    29    1
    36     3    30    1
    37     7    31    1
    38     8    32    1
    39    10    33    1
    40    11    34    1
    41    16    35    1
    42    18    36    1
    43    22    37    1
    44    24    38    1
    45    25    39    1
