@<TRIPOS>MOLECULE
*****
 33 37 0 0 0
SMALL
GASTEIGER

@<TRIPOS>ATOM
      1 C           0.5279    0.7599    0.3000 C.3     1  UNL1        0.0000
      2 C           1.5716   -0.3556    0.2145 C.2     1  UNL1        0.0000
      3 C           1.0028   -1.5416   -0.0817 C.2     1  UNL1        0.0000
      4 C          -0.4192   -1.3214   -0.2132 C.ar    1  UNL1        0.0000
      5 C          -0.7560    0.0245    0.0028 C.ar    1  UNL1        0.0000
      6 C          -2.0747    0.5278   -0.0619 C.ar    1  UNL1        0.0000
      7 C          -2.3699    1.8839    0.1609 C.ar    1  UNL1        0.0000
      8 C          -3.6840    2.3598    0.0915 C.ar    1  UNL1        0.0000
      9 C          -4.7357    1.4944   -0.2020 C.ar    1  UNL1        0.0000
     10 C          -4.4832    0.1436   -0.4291 C.ar    1  UNL1        0.0000
     11 C          -3.1641   -0.3500   -0.3624 C.ar    1  UNL1        0.0000
     12 C          -2.8601   -1.7461   -0.5919 C.ar    1  UNL1        0.0000
     13 N          -3.7316   -2.7292   -0.8859 N.ar    1  UNL1        0.0000
     14 S          -2.8437   -4.1232   -1.0437 S.2     1  UNL1        0.0000
     15 N          -1.3100   -3.5598   -0.7492 N.ar    1  UNL1        0.0000
     16 C          -1.4321   -2.2439   -0.5128 C.ar    1  UNL1        0.0000
     17 C           2.9840   -0.1401    0.4286 C.2     1  UNL1        0.0000
     18 C           3.9827   -1.0514    0.3845 C.2     1  UNL1        0.0000
     19 C           5.3254   -0.5516    0.6430 C.2     1  UNL1        0.0000
     20 C           5.4134    0.7655    0.8968 C.2     1  UNL1        0.0000
     21 SI          3.7297    1.5773    0.8379 Si      1  UNL1        0.0000
     22 H           0.4926    1.1931    1.3048 H       1  UNL1        0.0000
     23 H           0.7076    1.5295   -0.4577 H       1  UNL1        0.0000
     24 H           1.4737   -2.5035   -0.2080 H       1  UNL1        0.0000
     25 H          -1.5791    2.5939    0.3930 H       1  UNL1        0.0000
     26 H          -3.8862    3.4139    0.2681 H       1  UNL1        0.0000
     27 H          -5.7539    1.8721   -0.2540 H       1  UNL1        0.0000
     28 H          -5.3100   -0.5260   -0.6577 H       1  UNL1        0.0000
     29 H           3.8407   -2.1044    0.1731 H       1  UNL1        0.0000
     30 H           6.1775   -1.2204    0.6252 H       1  UNL1        0.0000
     31 H           6.3104    1.3245    1.1110 H       1  UNL1        0.0000
     32 H           3.2747    2.0759    2.1598 H       1  UNL1        0.0000
     33 H           3.5787    2.5284   -0.2916 H       1  UNL1        0.0000
@<TRIPOS>BOND
     1     1     2    1
     2     2     3    2
     3     3     4    1
     4     4     5   ar
     5     5     6   ar
     6     6     7   ar
     7     7     8   ar
     8     8     9   ar
     9     9    10   ar
    10    10    11   ar
    11    11    12   ar
    12    12    13   ar
    13    13    14   ar
    14    14    15   ar
    15    15    16   ar
    16     2    17    1
    17    17    18    2
    18    18    19    1
    19    19    20    2
    20    20    21    1
    21     5     1    1
    22    11     6   ar
    23    16    12   ar
    24    21    17    1
    25    16     4   ar
    26     1    22    1
    27     1    23    1
    28     3    24    1
    29     7    25    1
    30     8    26    1
    31     9    27    1
    32    10    28    1
    33    18    29    1
    34    19    30    1
    35    20    31    1
    36    21    32    1
    37    21    33    1
