@<TRIPOS>MOLECULE
*****
 38 43 0 0 0
SMALL
GASTEIGER

@<TRIPOS>ATOM
      1 C           1.6493   -1.0535    0.7077 C.3     1  UNL1        0.0000
      2 C           2.7231   -0.2935   -0.0199 C.2     1  UNL1        0.0000
      3 C           2.1634    0.6499   -0.7982 C.2     1  UNL1        0.0000
      4 C           0.7234    0.6031   -0.6629 C.ar    1  UNL1        0.0000
      5 C           0.4041   -0.3780    0.2060 C.ar    1  UNL1        0.0000
      6 C          -0.9802   -0.7056    0.5805 C.ar    1  UNL1        0.0000
      7 C          -1.2672   -1.7263    1.4815 C.ar    1  UNL1        0.0000
      8 N          -2.4962   -2.1030    1.8881 N.ar    1  UNL1        0.0000
      9 C          -3.5157   -1.3986    1.3466 C.ar    1  UNL1        0.0000
     10 C          -4.8997   -1.5666    1.5830 C.ar    1  UNL1        0.0000
     11 C          -5.5601   -0.6336    0.8203 C.ar    1  UNL1        0.0000
     12 N          -4.6154    0.0872    0.1351 N.ar    1  UNL1        0.0000
     13 C          -3.3453   -0.3538    0.4324 C.ar    1  UNL1        0.0000
     14 C          -2.0580    0.0281    0.0174 C.ar    1  UNL1        0.0000
     15 C          -1.7562    1.1215   -0.9473 C.ar    1  UNL1        0.0000
     16 C          -2.6108    1.9398   -1.5982 C.2     1  UNL1        0.0000
     17 SI         -1.7053    3.1571   -2.7098 Si      1  UNL1        0.0000
     18 C          -0.1097    2.3918   -2.1537 C.2     1  UNL1        0.0000
     19 C          -0.3228    1.3920   -1.2756 C.ar    1  UNL1        0.0000
     20 C           4.1367   -0.5965    0.1488 C.ar    1  UNL1        0.0000
     21 N           5.0144    0.1357   -0.5416 N.ar    1  UNL1        0.0000
     22 C           6.2862   -0.1963   -0.3386 C.ar    1  UNL1        0.0000
     23 N           6.7260   -1.1606    0.4656 N.ar    1  UNL1        0.0000
     24 C           5.7568   -1.8177    1.0971 C.ar    1  UNL1        0.0000
     25 N           4.4509   -1.5881    0.9848 N.ar    1  UNL1        0.0000
     26 H           1.7492   -0.9421    1.7928 H       1  UNL1        0.0000
     27 H           1.6597   -2.1146    0.4359 H       1  UNL1        0.0000
     28 H           2.6918    1.3447   -1.4335 H       1  UNL1        0.0000
     29 H          -0.4711   -2.3116    1.9348 H       1  UNL1        0.0000
     30 H          -5.3515   -2.2946    2.2420 H       1  UNL1        0.0000
     31 H          -6.6142   -0.4198    0.7050 H       1  UNL1        0.0000
     32 H          -4.8368    0.8374   -0.4986 H       1  UNL1        0.0000
     33 H          -3.6803    1.9927   -1.5733 H       1  UNL1        0.0000
     34 H          -1.8740    4.5549   -2.2464 H       1  UNL1        0.0000
     35 H          -1.9991    2.9162   -4.1426 H       1  UNL1        0.0000
     36 H           0.8401    2.7453   -2.5218 H       1  UNL1        0.0000
     37 H           7.0348    0.3726   -0.8794 H       1  UNL1        0.0000
     38 H           6.0597   -2.6157    1.7666 H       1  UNL1        0.0000
@<TRIPOS>BOND
     1     1     2    1
     2     2     3    2
     3     3     4    1
     4     4     5   ar
     5     5     6   ar
     6     6     7   ar
     7     7     8   ar
     8     8     9   ar
     9     9    10   ar
    10    10    11   ar
    11    11    12   ar
    12    12    13   ar
    13    13    14   ar
    14    14    15   ar
    15    15    16    2
    16    16    17    1
    17    17    18    1
    18    18    19    2
    19     2    20    1
    20    20    21   ar
    21    21    22   ar
    22    22    23   ar
    23    23    24   ar
    24    24    25   ar
    25     5     1    1
    26    14     6   ar
    27    19    15   ar
    28    25    20   ar
    29    19     4   ar
    30    13     9   ar
    31     1    26    1
    32     1    27    1
    33     3    28    1
    34     7    29    1
    35    10    30    1
    36    11    31    1
    37    12    32    1
    38    16    33    1
    39    17    34    1
    40    17    35    1
    41    18    36    1
    42    22    37    1
    43    24    38    1
