@<TRIPOS>MOLECULE
*****
 51 58 0 0 0
SMALL
GASTEIGER

@<TRIPOS>ATOM
      1 C           1.3775   -1.0335    0.2640 C.3     1  UNL1        0.0000
      2 C           2.2867   -0.0354    0.9654 C.2     1  UNL1        0.0000
      3 C           1.6480    1.0612    1.4166 C.2     1  UNL1        0.0000
      4 C           0.2634    0.8879    1.0526 C.ar    1  UNL1        0.0000
      5 C           0.0556   -0.3230    0.3754 C.ar    1  UNL1        0.0000
      6 C          -1.2251   -0.6599   -0.0749 C.ar    1  UNL1        0.0000
      7 O          -1.5557   -1.7733   -0.7859 O.2     1  UNL1        0.0000
      8 C          -2.9048   -1.7205   -1.0381 C.ar    1  UNL1        0.0000
      9 C          -3.6109   -2.6828   -1.8229 C.ar    1  UNL1        0.0000
     10 C          -4.9366   -2.5208   -1.9881 C.ar    1  UNL1        0.0000
     11 C          -5.6255   -1.4190   -1.3294 C.ar    1  UNL1        0.0000
     12 C          -6.9610   -1.2489   -1.3708 C.2     1  UNL1        0.0000
     13 SI         -7.4840    0.1794   -0.2911 Si      1  UNL1        0.0000
     14 C          -5.6893    0.4272    0.1698 C.2     1  UNL1        0.0000
     15 C          -4.8843   -0.4280   -0.4866 C.ar    1  UNL1        0.0000
     16 C          -3.4607   -0.5858   -0.4159 C.ar    1  UNL1        0.0000
     17 C          -2.3688    0.1089    0.1129 C.ar    1  UNL1        0.0000
     18 C          -2.1700    1.3823    0.7581 C.ar    1  UNL1        0.0000
     19 C          -2.9911    2.4449    0.9898 C.ar    1  UNL1        0.0000
     20 N          -2.2092    3.3905    1.6304 N.ar    1  UNL1        0.0000
     21 C          -0.9088    2.9385    1.7552 C.ar    1  UNL1        0.0000
     22 C          -0.8561    1.6845    1.1963 C.ar    1  UNL1        0.0000
     23 C           3.7205   -0.2903    1.1080 C.ar    1  UNL1        0.0000
     24 C           4.1594   -0.8125    2.3341 C.ar    1  UNL1        0.0000
     25 C           5.5060   -1.0917    2.5417 C.ar    1  UNL1        0.0000
     26 C           6.4282   -0.8487    1.5265 C.ar    1  UNL1        0.0000
     27 C           6.0207   -0.3180    0.2927 C.ar    1  UNL1        0.0000
     28 C           6.9652   -0.0731   -0.7183 C.ar    1  UNL1        0.0000
     29 C           6.5804    0.4610   -1.9474 C.ar    1  UNL1        0.0000
     30 C           5.2450    0.7606   -2.1815 C.ar    1  UNL1        0.0000
     31 C           4.2937    0.5220   -1.1873 C.ar    1  UNL1        0.0000
     32 C           4.6517   -0.0255    0.0675 C.ar    1  UNL1        0.0000
     33 H           1.3498   -1.9914    0.7921 H       1  UNL1        0.0000
     34 H           1.6555   -1.1747   -0.7844 H       1  UNL1        0.0000
     35 H           2.0622    1.9088    1.9357 H       1  UNL1        0.0000
     36 H          -3.0669   -3.5013   -2.2781 H       1  UNL1        0.0000
     37 H          -5.5110   -3.2228   -2.5827 H       1  UNL1        0.0000
     38 H          -7.6833   -1.8562   -1.8927 H       1  UNL1        0.0000
     39 H          -8.3095   -0.2529    0.8620 H       1  UNL1        0.0000
     40 H          -8.0271    1.3158   -1.0735 H       1  UNL1        0.0000
     41 H          -5.4227    1.1591    0.9069 H       1  UNL1        0.0000
     42 H          -4.0174    2.6714    0.7549 H       1  UNL1        0.0000
     43 H          -2.5347    4.2995    1.9325 H       1  UNL1        0.0000
     44 H          -0.1526    3.5642    2.2092 H       1  UNL1        0.0000
     45 H           3.4469   -1.0088    3.1327 H       1  UNL1        0.0000
     46 H           5.8371   -1.4995    3.4929 H       1  UNL1        0.0000
     47 H           7.4768   -1.0750    1.7081 H       1  UNL1        0.0000
     48 H           8.0170   -0.2970   -0.5534 H       1  UNL1        0.0000
     49 H           7.3242    0.6449   -2.7179 H       1  UNL1        0.0000
     50 H           4.9380    1.1817   -3.1352 H       1  UNL1        0.0000
     51 H           3.2576    0.7761   -1.4013 H       1  UNL1        0.0000
@<TRIPOS>BOND
     1     1     2    1
     2     2     3    2
     3     3     4    1
     4     4     5   ar
     5     5     6   ar
     6     6     7   ar
     7     7     8   ar
     8     8     9   ar
     9     9    10   ar
    10    10    11   ar
    11    11    12    2
    12    12    13    1
    13    13    14    1
    14    14    15    2
    15    15    16   ar
    16    16    17   ar
    17    17    18   ar
    18    18    19   ar
    19    19    20   ar
    20    20    21   ar
    21    21    22   ar
    22     2    23    1
    23    23    24   ar
    24    24    25   ar
    25    25    26   ar
    26    26    27   ar
    27    27    28   ar
    28    28    29   ar
    29    29    30   ar
    30    30    31   ar
    31    31    32   ar
    32     5     1    1
    33    17     6   ar
    34    22    18   ar
    35    32    23   ar
    36    22     4   ar
    37    32    27   ar
    38    16     8   ar
    39    15    11   ar
    40     1    33    1
    41     1    34    1
    42     3    35    1
    43     9    36    1
    44    10    37    1
    45    12    38    1
    46    13    39    1
    47    13    40    1
    48    14    41    1
    49    19    42    1
    50    20    43    1
    51    21    44    1
    52    24    45    1
    53    25    46    1
    54    26    47    1
    55    28    48    1
    56    29    49    1
    57    30    50    1
    58    31    51    1
