@<TRIPOS>MOLECULE
*****
 44 51 0 0 0
SMALL
GASTEIGER

@<TRIPOS>ATOM
      1 C          -1.4195   -0.4153    0.1001 C.3     1  UNL1        0.0000
      2 C          -2.3839    0.7750    0.2139 C.2     1  UNL1        0.0000
      3 C          -1.6949    1.9391    0.2881 C.2     1  UNL1        0.0000
      4 C          -0.2836    1.6340    0.2288 C.ar    1  UNL1        0.0000
      5 C          -0.0793    0.2590    0.1165 C.ar    1  UNL1        0.0000
      6 C           1.2181   -0.2497    0.0518 C.ar    1  UNL1        0.0000
      7 O           1.5523   -1.5745   -0.0095 O.2     1  UNL1        0.0000
      8 C           2.9190   -1.6417   -0.0866 C.ar    1  UNL1        0.0000
      9 C           3.6563   -2.8414   -0.1423 C.ar    1  UNL1        0.0000
     10 C           5.0552   -2.7954   -0.2688 C.ar    1  UNL1        0.0000
     11 C           5.5618   -1.5010   -0.3882 C.ar    1  UNL1        0.0000
     12 C           6.9038   -1.2824   -0.6040 C.ar    1  UNL1        0.0000
     13 S           7.2524    0.3910   -0.8257 S.2     1  UNL1        0.0000
     14 C           5.5960    0.8364   -0.6387 C.ar    1  UNL1        0.0000
     15 C           4.8509   -0.2676   -0.3483 C.ar    1  UNL1        0.0000
     16 C           3.4392   -0.3526   -0.1201 C.ar    1  UNL1        0.0000
     17 C           2.3796    0.5225    0.0590 C.ar    1  UNL1        0.0000
     18 C           2.2044    1.9418    0.2646 C.ar    1  UNL1        0.0000
     19 C           3.1555    2.8835    0.5221 C.ar    1  UNL1        0.0000
     20 S           2.4152    4.4329    0.6943 S.2     1  UNL1        0.0000
     21 C           0.8289    3.7821    0.5132 C.ar    1  UNL1        0.0000
     22 C           0.8562    2.4202    0.3190 C.ar    1  UNL1        0.0000
     23 C          -3.8227    0.7203    0.2443 C.ar    1  UNL1        0.0000
     24 S          -4.7963    2.1796    0.3627 S.2     1  UNL1        0.0000
     25 C          -6.2924    1.3426    0.3424 C.ar    1  UNL1        0.0000
     26 C          -6.0571    0.0098    0.2488 C.ar    1  UNL1        0.0000
     27 SI         -7.1368   -1.5299    0.1719 Si      1  UNL1        0.0000
     28 C          -5.5415   -2.5616    0.0665 C.2     1  UNL1        0.0000
     29 C          -4.4393   -1.7803    0.0927 C.2     1  UNL1        0.0000
     30 C          -4.6836   -0.3656    0.1921 C.ar    1  UNL1        0.0000
     31 H          -1.5639   -0.9530   -0.8418 H       1  UNL1        0.0000
     32 H          -1.5177   -1.0872    0.9581 H       1  UNL1        0.0000
     33 H          -2.0770    2.9428    0.3776 H       1  UNL1        0.0000
     34 H           3.1390   -3.7949   -0.0906 H       1  UNL1        0.0000
     35 H           5.6543   -3.6969   -0.3165 H       1  UNL1        0.0000
     36 H           7.7061   -2.0045   -0.6730 H       1  UNL1        0.0000
     37 H           5.3154    1.8629   -0.7980 H       1  UNL1        0.0000
     38 H           4.2188    2.8005    0.6651 H       1  UNL1        0.0000
     39 H          -0.0242    4.4423    0.5877 H       1  UNL1        0.0000
     40 H          -7.2298    1.8790    0.3995 H       1  UNL1        0.0000
     41 H          -7.8762   -1.8141    1.4268 H       1  UNL1        0.0000
     42 H          -7.9342   -1.6484   -1.0741 H       1  UNL1        0.0000
     43 H          -5.5798   -3.6368   -0.0038 H       1  UNL1        0.0000
     44 H          -3.4447   -2.2024    0.0418 H       1  UNL1        0.0000
@<TRIPOS>BOND
     1     1     2    1
     2     2     3    2
     3     3     4    1
     4     4     5   ar
     5     5     6   ar
     6     6     7   ar
     7     7     8   ar
     8     8     9   ar
     9     9    10   ar
    10    10    11   ar
    11    11    12   ar
    12    12    13   ar
    13    13    14   ar
    14    14    15   ar
    15    15    16   ar
    16    16    17   ar
    17    17    18   ar
    18    18    19   ar
    19    19    20   ar
    20    20    21   ar
    21    21    22   ar
    22     2    23    1
    23    23    24   ar
    24    24    25   ar
    25    25    26   ar
    26    26    27    1
    27    27    28    1
    28    28    29    2
    29    29    30    1
    30     5     1    1
    31    17     6   ar
    32    22    18   ar
    33    30    23   ar
    34    22     4   ar
    35    30    26   ar
    36    16     8   ar
    37    15    11   ar
    38     1    31    1
    39     1    32    1
    40     3    33    1
    41     9    34    1
    42    10    35    1
    43    12    36    1
    44    14    37    1
    45    19    38    1
    46    21    39    1
    47    25    40    1
    48    27    41    1
    49    27    42    1
    50    28    43    1
    51    29    44    1
