@<TRIPOS>MOLECULE
*****
 46 53 0 0 0
SMALL
GASTEIGER

@<TRIPOS>ATOM
      1 C           2.1932   -0.5928    1.3458 C.3     1  UNL1       -0.0001
      2 C           3.2965   -0.0174    0.4514 C.2     1  UNL1       -0.0317
      3 C           2.7881    0.5167   -0.6790 C.2     1  UNL1       -0.0495
      4 C           1.3578    0.3501   -0.6241 C.ar    1  UNL1       -0.0110
      5 C           0.9491   -0.2950    0.5447 C.ar    1  UNL1       -0.0209
      6 C          -0.4099   -0.6002    0.7988 C.ar    1  UNL1        0.0252
      7 S          -1.0597   -1.5068    2.0955 S.2     1  UNL1       -0.0879
      8 C          -2.6779   -1.3467    1.5204 C.ar    1  UNL1        0.0211
      9 C          -3.7978   -1.9801    2.0904 C.ar    1  UNL1       -0.0468
     10 C          -5.0660   -1.6980    1.5938 C.ar    1  UNL1       -0.0529
     11 C          -5.2456   -0.7248    0.6171 C.ar    1  UNL1       -0.0172
     12 C          -6.5442   -0.3706    0.2159 C.ar    1  UNL1       -0.0540
     13 C          -6.7568    0.6749   -0.6803 C.ar    1  UNL1       -0.0612
     14 C          -5.6740    1.3964   -1.1639 C.ar    1  UNL1       -0.0611
     15 C          -4.3758    1.0420   -0.7878 C.ar    1  UNL1       -0.0534
     16 C          -4.1208   -0.0595    0.0589 C.ar    1  UNL1       -0.0091
     17 C          -2.7835   -0.4716    0.4272 C.ar    1  UNL1        0.0053
     18 C          -1.4515   -0.2177   -0.0498 C.ar    1  UNL1        0.0069
     19 C          -1.0312    0.3541   -1.3249 C.ar    1  UNL1        0.0088
     20 C          -1.7047    0.5969   -2.4875 C.ar    1  UNL1        0.0100
     21 N          -0.7704    1.1066   -3.3693 N.ar    1  UNL1       -0.3659
     22 C           0.4822    1.1130   -2.7873 C.ar    1  UNL1        0.0100
     23 C           0.3440    0.6111   -1.5153 C.ar    1  UNL1        0.0075
     24 C           4.7055   -0.0941    0.8637 C.ar    1  UNL1        0.0247
     25 C           5.1374   -0.6904    2.0621 C.ar    1  UNL1        0.0372
     26 N           6.4173   -0.8192    2.5486 N.ar    1  UNL1       -0.2604
     27 C           7.4750   -0.3336    1.8439 C.ar    1  UNL1        0.0557
     28 C           7.2168    0.2984    0.6136 C.ar    1  UNL1        0.1185
     29 N           8.1360    0.8324   -0.2070 N.ar    1  UNL1       -0.1892
     30 S           7.3054    1.4423   -1.5037 S.2     1  UNL1        0.1165
     31 N           5.7525    1.0568   -1.0830 N.ar    1  UNL1       -0.1901
     32 C           5.7946    0.4241    0.1054 C.ar    1  UNL1        0.1102
     33 H           2.1534   -0.0802    2.3123 H       1  UNL1        0.0362
     34 H           2.3107   -1.6732    1.4783 H       1  UNL1        0.0362
     35 H           3.2987    0.9873   -1.5021 H       1  UNL1        0.0627
     36 H          -3.6776   -2.6805    2.9127 H       1  UNL1        0.0629
     37 H          -5.9214   -2.2053    2.0353 H       1  UNL1        0.0624
     38 H          -7.4086   -0.8926    0.6214 H       1  UNL1        0.0624
     39 H          -7.7681    0.9467   -0.9703 H       1  UNL1        0.0618
     40 H          -5.8346    2.2465   -1.8217 H       1  UNL1        0.0618
     41 H          -3.5636    1.6793   -1.1222 H       1  UNL1        0.0624
     42 H          -2.7225    0.4374   -2.8118 H       1  UNL1        0.0813
     43 H          -0.9661    1.3840   -4.3225 H       1  UNL1        0.1648
     44 H           1.3465    1.4388   -3.3502 H       1  UNL1        0.0813
     45 H           4.4072   -1.1295    2.7427 H       1  UNL1        0.0836
     46 H           8.4644   -0.4564    2.2637 H       1  UNL1        0.0852
@<TRIPOS>BOND
     1     1     2    1
     2     2     3    2
     3     3     4    1
     4     4     5   ar
     5     5     6   ar
     6     6     7   ar
     7     7     8   ar
     8     8     9   ar
     9     9    10   ar
    10    10    11   ar
    11    11    12   ar
    12    12    13   ar
    13    13    14   ar
    14    14    15   ar
    15    15    16   ar
    16    16    17   ar
    17    17    18   ar
    18    18    19   ar
    19    19    20   ar
    20    20    21   ar
    21    21    22   ar
    22    22    23   ar
    23     2    24    1
    24    24    25   ar
    25    25    26   ar
    26    26    27   ar
    27    27    28   ar
    28    28    29   ar
    29    29    30   ar
    30    30    31   ar
    31    31    32   ar
    32     5     1    1
    33    18     6   ar
    34    23    19   ar
    35    32    24   ar
    36    23     4   ar
    37    32    28   ar
    38    17     8   ar
    39    16    11   ar
    40     1    33    1
    41     1    34    1
    42     3    35    1
    43     9    36    1
    44    10    37    1
    45    12    38    1
    46    13    39    1
    47    14    40    1
    48    15    41    1
    49    20    42    1
    50    21    43    1
    51    22    44    1
    52    25    45    1
    53    27    46    1
