@<TRIPOS>MOLECULE
*****
 40 46 0 0 0
SMALL
GASTEIGER

@<TRIPOS>ATOM
      1 C           1.5286    0.8030   -0.3299 C.3     1  UNL1       -0.0002
      2 C           2.5063   -0.2848    0.1077 C.2     1  UNL1       -0.0353
      3 C           1.8666   -1.3359    0.6625 C.2     1  UNL1       -0.0496
      4 C           0.4518   -1.0455    0.6280 C.ar    1  UNL1       -0.0120
      5 C           0.1972    0.1971    0.0507 C.ar    1  UNL1       -0.0210
      6 C          -1.1133    0.7030   -0.0888 C.ar    1  UNL1        0.0252
      7 S          -1.5536    2.2460   -0.7116 S.2     1  UNL1       -0.0878
      8 C          -3.2432    1.9365   -0.5666 C.ar    1  UNL1        0.0227
      9 C          -4.2732    2.8407   -0.9275 C.ar    1  UNL1       -0.0452
     10 C          -5.6182    2.4743   -0.8502 C.ar    1  UNL1       -0.0324
     11 C          -5.8704    1.1544   -0.4446 C.ar    1  UNL1        0.1005
     12 N          -7.0940    0.5957   -0.3762 N.ar    1  UNL1       -0.1908
     13 S          -6.8711   -0.9960    0.0698 S.2     1  UNL1        0.1165
     14 N          -5.2104   -1.0329    0.2182 N.ar    1  UNL1       -0.1901
     15 C          -4.8325    0.2042   -0.0538 C.ar    1  UNL1        0.1087
     16 C          -3.4543    0.6554   -0.0674 C.ar    1  UNL1        0.0257
     17 C          -2.2570   -0.0074    0.2986 C.ar    1  UNL1        0.0076
     18 C          -2.0128   -1.2778    0.9998 C.ar    1  UNL1       -0.0014
     19 C          -2.8974   -2.0750    1.6684 C.ar    1  UNL1       -0.0160
     20 S          -2.1017   -3.4594    2.3189 S.2     1  UNL1       -0.1038
     21 C          -0.5662   -2.9213    1.7657 C.ar    1  UNL1       -0.0160
     22 C          -0.6560   -1.7203    1.0989 C.ar    1  UNL1       -0.0028
     23 C           3.9640   -0.1374   -0.0750 C.ar    1  UNL1       -0.0215
     24 C           4.5154    1.0684   -0.5385 C.ar    1  UNL1       -0.0543
     25 C           5.8953    1.2152   -0.7192 C.ar    1  UNL1       -0.0612
     26 C           6.7528    0.1560   -0.4419 C.ar    1  UNL1       -0.0617
     27 C           6.2302   -1.0492    0.0143 C.ar    1  UNL1       -0.0612
     28 C           4.8500   -1.1934    0.1946 C.ar    1  UNL1       -0.0543
     29 H           1.6897    1.7342    0.2225 H       1  UNL1        0.0362
     30 H           1.5756    0.9724   -1.4104 H       1  UNL1        0.0362
     31 H           2.2878   -2.2388    1.0704 H       1  UNL1        0.0627
     32 H          -4.0153    3.8354   -1.2891 H       1  UNL1        0.0629
     33 H          -6.4181    3.1485   -1.1319 H       1  UNL1        0.0640
     34 H          -3.9491   -1.9678    1.8663 H       1  UNL1        0.0700
     35 H           0.3110   -3.5126    1.9881 H       1  UNL1        0.0700
     36 H           3.8850    1.9237   -0.7666 H       1  UNL1        0.0624
     37 H           6.2970    2.1598   -1.0770 H       1  UNL1        0.0618
     38 H           7.8243    0.2688   -0.5822 H       1  UNL1        0.0618
     39 H           6.8938   -1.8825    0.2302 H       1  UNL1        0.0618
     40 H           4.4853   -2.1548    0.5454 H       1  UNL1        0.0624
@<TRIPOS>BOND
     1     1     2    1
     2     2     3    2
     3     3     4    1
     4     4     5   ar
     5     5     6   ar
     6     6     7   ar
     7     7     8   ar
     8     8     9   ar
     9     9    10   ar
    10    10    11   ar
    11    11    12   ar
    12    12    13   ar
    13    13    14   ar
    14    14    15   ar
    15    15    16   ar
    16    16    17   ar
    17    17    18   ar
    18    18    19   ar
    19    19    20   ar
    20    20    21   ar
    21    21    22   ar
    22     2    23    1
    23    23    24   ar
    24    24    25   ar
    25    25    26   ar
    26    26    27   ar
    27    27    28   ar
    28     5     1    1
    29    17     6   ar
    30    22    18   ar
    31    28    23   ar
    32    22     4   ar
    33    16     8   ar
    34    15    11   ar
    35     1    29    1
    36     1    30    1
    37     3    31    1
    38     9    32    1
    39    10    33    1
    40    19    34    1
    41    21    35    1
    42    24    36    1
    43    25    37    1
    44    26    38    1
    45    27    39    1
    46    28    40    1
