@<TRIPOS>MOLECULE
*****
 35 40 0 0 0
SMALL
GASTEIGER

@<TRIPOS>ATOM
      1 C          -1.7168   -1.4265    0.2476 C.3     1  UNL1       -0.0011
      2 C          -0.8087   -0.2276   -0.0363 C.2     1  UNL1       -0.0331
      3 C          -1.5257    0.8763   -0.3405 C.2     1  UNL1       -0.0481
      4 C          -2.9239    0.5156   -0.2859 C.ar    1  UNL1        0.0069
      5 C          -3.0874   -0.8326    0.0571 C.ar    1  UNL1       -0.0337
      6 C          -4.3374   -1.4547    0.1832 C.ar    1  UNL1       -0.0555
      7 C          -5.5350   -0.7389   -0.0341 C.ar    1  UNL1       -0.0332
      8 C          -5.4238    0.6396   -0.3863 C.ar    1  UNL1        0.1005
      9 N          -6.4405    1.4802   -0.6309 N.ar    1  UNL1       -0.1908
     10 S          -5.7540    2.9521   -0.9914 S.2     1  UNL1        0.1165
     11 N          -4.1345    2.5971   -0.8555 N.ar    1  UNL1       -0.1902
     12 C          -4.0648    1.2993   -0.5191 C.ar    1  UNL1        0.1073
     13 C           0.6634   -0.3003    0.0230 C.ar    1  UNL1        0.0072
     14 C           1.5038    0.8147   -0.2391 C.ar    1  UNL1       -0.0444
     15 C           2.9258    0.8036   -0.1969 C.ar    1  UNL1       -0.0151
     16 C           3.6591    1.9678   -0.4746 C.ar    1  UNL1       -0.0539
     17 C           5.0582    1.9730   -0.4373 C.ar    1  UNL1       -0.0612
     18 C           5.7595    0.8122   -0.1209 C.ar    1  UNL1       -0.0611
     19 C           5.0646   -0.3608    0.1601 C.ar    1  UNL1       -0.0519
     20 C           3.6533   -0.3707    0.1236 C.ar    1  UNL1        0.0103
     21 C           2.8753   -1.5427    0.4021 C.ar    1  UNL1        0.1081
     22 N           3.3629   -2.7550    0.7259 N.ar    1  UNL1       -0.1901
     23 S           2.0642   -3.7526    0.9454 S.2     1  UNL1        0.1165
     24 N           0.8207   -2.7067    0.6433 N.ar    1  UNL1       -0.1902
     25 C           1.3572   -1.5068    0.3510 C.ar    1  UNL1        0.1079
     26 H          -1.5598   -2.2317   -0.4768 H       1  UNL1        0.0362
     27 H          -1.6076   -1.7799    1.2776 H       1  UNL1        0.0362
     28 H          -1.1902    1.8702   -0.5875 H       1  UNL1        0.0627
     29 H          -4.3899   -2.5081    0.4532 H       1  UNL1        0.0621
     30 H          -6.5069   -1.2098    0.0606 H       1  UNL1        0.0640
     31 H           1.0315    1.7643   -0.4950 H       1  UNL1        0.0630
     32 H           3.1463    2.8949   -0.7260 H       1  UNL1        0.0624
     33 H           5.6007    2.8898   -0.6570 H       1  UNL1        0.0618
     34 H           6.8461    0.8210   -0.0932 H       1  UNL1        0.0618
     35 H           5.6145   -1.2666    0.4070 H       1  UNL1        0.0624
@<TRIPOS>BOND
     1     1     2    1
     2     2     3    2
     3     3     4    1
     4     4     5   ar
     5     5     6   ar
     6     6     7   ar
     7     7     8   ar
     8     8     9   ar
     9     9    10   ar
    10    10    11   ar
    11    11    12   ar
    12     2    13    1
    13    13    14   ar
    14    14    15   ar
    15    15    16   ar
    16    16    17   ar
    17    17    18   ar
    18    18    19   ar
    19    19    20   ar
    20    20    21   ar
    21    21    22   ar
    22    22    23   ar
    23    23    24   ar
    24    24    25   ar
    25     5     1    1
    26    12     8   ar
    27    25    13   ar
    28    12     4   ar
    29    20    15   ar
    30    25    21   ar
    31     1    26    1
    32     1    27    1
    33     3    28    1
    34     6    29    1
    35     7    30    1
    36    14    31    1
    37    16    32    1
    38    17    33    1
    39    18    34    1
    40    19    35    1
