@<TRIPOS>MOLECULE
*****
 35 39 0 0 0
SMALL
GASTEIGER

@<TRIPOS>ATOM
      1 SI         -1.2493    0.1242    1.5318 Si      1  UNL1        0.0000
      2 C           0.0913   -0.4722    0.3395 C.2     1  UNL1        0.0000
      3 C          -0.4614   -1.0578   -0.7434 C.2     1  UNL1        0.0000
      4 C          -1.9188   -1.0997   -0.7563 C.2     1  UNL1        0.0000
      5 C          -2.5222   -0.5561    0.3205 C.2     1  UNL1        0.0000
      6 C          -3.9225   -0.4637    0.4920 C.ar    1  UNL1        0.0000
      7 S          -4.6990   -0.9361    1.9756 S.2     1  UNL1        0.0000
      8 C          -6.2801   -0.5763    1.4021 C.ar    1  UNL1        0.0000
      9 C          -6.2252   -0.1121    0.1216 C.ar    1  UNL1        0.0000
     10 S          -7.5318    0.4244   -0.9952 S.2     1  UNL1        0.0000
     11 C          -6.2249    0.7291   -2.1311 C.ar    1  UNL1        0.0000
     12 C          -4.9318    0.4404   -1.6794 C.ar    1  UNL1        0.0000
     13 C          -4.9145   -0.0651   -0.3503 C.ar    1  UNL1        0.0000
     14 C           1.4792   -0.3113    0.5824 C.ar    1  UNL1        0.0000
     15 C           2.1890   -0.4538    1.7639 C.ar    1  UNL1        0.0000
     16 C           3.5847   -0.1953    1.6182 C.ar    1  UNL1        0.0000
     17 C           3.9268    0.1442    0.3260 C.ar    1  UNL1        0.0000
     18 S           2.5520    0.1431   -0.6909 S.2     1  UNL1        0.0000
     19 C           5.2338    0.4682   -0.1840 C.ar    1  UNL1        0.0000
     20 C           6.4458    0.5155    0.4909 C.ar    1  UNL1        0.0000
     21 C           7.4425    0.8834   -0.4458 C.ar    1  UNL1        0.0000
     22 C           6.7923    1.0422   -1.6431 C.ar    1  UNL1        0.0000
     23 O           5.4677    0.7959   -1.4986 O.2     1  UNL1        0.0000
     24 H          -1.2060   -0.6132    2.8231 H       1  UNL1        0.0000
     25 H          -1.2940    1.6057    1.6445 H       1  UNL1        0.0000
     26 H           0.0994   -1.4873   -1.5656 H       1  UNL1        0.0000
     27 H          -2.4413   -1.5514   -1.5915 H       1  UNL1        0.0000
     28 H          -7.1641   -0.7152    2.0089 H       1  UNL1        0.0000
     29 H          -6.4980    1.1213   -3.1014 H       1  UNL1        0.0000
     30 H          -4.0547    0.5989   -2.2948 H       1  UNL1        0.0000
     31 H           1.7346   -0.7454    2.7036 H       1  UNL1        0.0000
     32 H           4.2948   -0.2619    2.4328 H       1  UNL1        0.0000
     33 H           6.5949    0.3079    1.5410 H       1  UNL1        0.0000
     34 H           8.5004    1.0157   -0.2693 H       1  UNL1        0.0000
     35 H           7.1101    1.3135   -2.6402 H       1  UNL1        0.0000
@<TRIPOS>BOND
     1     1     2    1
     2     2     3    2
     3     3     4    1
     4     4     5    2
     5     5     6    1
     6     6     7   ar
     7     7     8   ar
     8     8     9   ar
     9     9    10   ar
    10    10    11   ar
    11    11    12   ar
    12    12    13   ar
    13     2    14    1
    14    14    15   ar
    15    15    16   ar
    16    16    17   ar
    17    17    18   ar
    18    17    19    1
    19    19    20   ar
    20    20    21   ar
    21    21    22   ar
    22    22    23   ar
    23     5     1    1
    24    13     6   ar
    25    18    14   ar
    26    23    19   ar
    27    13     9   ar
    28     1    24    1
    29     1    25    1
    30     3    26    1
    31     4    27    1
    32     8    28    1
    33    11    29    1
    34    12    30    1
    35    15    31    1
    36    16    32    1
    37    20    33    1
    38    21    34    1
    39    22    35    1
