@<TRIPOS>MOLECULE
*****
 35 40 0 0 0
SMALL
GASTEIGER

@<TRIPOS>ATOM
      1 C          -0.5124    1.7148    0.0005 C.3     1  UNL1       -0.0007
      2 C          -1.5345    0.5838    0.1123 C.2     1  UNL1       -0.0281
      3 C          -0.9261   -0.6157    0.0068 C.2     1  UNL1       -0.0497
      4 C           0.5022   -0.4102   -0.1785 C.ar    1  UNL1       -0.0193
      5 C           1.5056   -1.3572   -0.3315 C.ar    1  UNL1       -0.0303
      6 C           2.8075   -0.8560   -0.4939 C.ar    1  UNL1        0.0486
      7 N           3.9877   -1.5432   -0.6649 N.ar    1  UNL1       -0.3537
      8 C           5.0160   -0.6427   -0.7826 C.ar    1  UNL1        0.0546
      9 C           6.4232   -0.6808   -0.9703 C.ar    1  UNL1       -0.0307
     10 C           6.9232    0.6037   -1.0098 C.ar    1  UNL1       -0.0217
     11 S           5.7317    1.8321   -0.8260 S.2     1  UNL1       -0.0945
     12 C           4.5030    0.6165   -0.6883 C.ar    1  UNL1        0.0446
     13 C           3.0892    0.5181   -0.5026 C.ar    1  UNL1        0.0143
     14 C           2.0526    1.4600   -0.3454 C.ar    1  UNL1       -0.0474
     15 C           0.7670    0.9588   -0.1852 C.ar    1  UNL1       -0.0352
     16 C          -2.9453    0.6962    0.3017 C.ar    1  UNL1        0.0249
     17 S          -3.6841    2.2897    0.4462 S.2     1  UNL1       -0.0943
     18 C          -5.2894    1.6779    0.6400 C.ar    1  UNL1        0.0002
     19 C          -5.2251    0.3349    0.5916 C.ar    1  UNL1        0.0542
     20 N          -6.2754   -0.5287    0.7042 N.ar    1  UNL1       -0.3602
     21 C          -5.6309   -1.7556    0.5822 C.ar    1  UNL1        0.0028
     22 C          -4.2405   -1.5930    0.4035 C.ar    1  UNL1       -0.0356
     23 C          -3.9658   -0.1950    0.4096 C.ar    1  UNL1        0.0141
     24 H          -0.7177    2.3477   -0.8687 H       1  UNL1        0.0362
     25 H          -0.4804    2.3101    0.9184 H       1  UNL1        0.0362
     26 H          -1.3682   -1.5964    0.0456 H       1  UNL1        0.0627
     27 H           1.2964   -2.4202   -0.3258 H       1  UNL1        0.0644
     28 H           4.1119   -2.5462   -0.7024 H       1  UNL1        0.1659
     29 H           7.0268   -1.5734   -1.0691 H       1  UNL1        0.0644
     30 H           7.9553    0.8991   -1.1407 H       1  UNL1        0.0694
     31 H           2.2527    2.5257   -0.3497 H       1  UNL1        0.0627
     32 H          -6.1469    2.3221    0.7723 H       1  UNL1        0.0714
     33 H          -7.2539   -0.3065    0.8399 H       1  UNL1        0.1653
     34 H          -6.2170   -2.6643    0.6320 H       1  UNL1        0.0807
     35 H          -3.5380   -2.4061    0.2859 H       1  UNL1        0.0639
@<TRIPOS>BOND
     1     1     2    1
     2     2     3    2
     3     3     4    1
     4     4     5   ar
     5     5     6   ar
     6     6     7   ar
     7     7     8   ar
     8     8     9   ar
     9     9    10   ar
    10    10    11   ar
    11    11    12   ar
    12    12    13   ar
    13    13    14   ar
    14    14    15   ar
    15     2    16    1
    16    16    17   ar
    17    17    18   ar
    18    18    19   ar
    19    19    20   ar
    20    20    21   ar
    21    21    22   ar
    22    22    23   ar
    23    15     1    1
    24    23    16   ar
    25    15     4   ar
    26    23    19   ar
    27    13     6   ar
    28    12     8   ar
    29     1    24    1
    30     1    25    1
    31     3    26    1
    32     5    27    1
    33     7    28    1
    34     9    29    1
    35    10    30    1
    36    14    31    1
    37    18    32    1
    38    20    33    1
    39    21    34    1
    40    22    35    1
