@<TRIPOS>MOLECULE
*****
 44 50 0 0 0
SMALL
GASTEIGER

@<TRIPOS>ATOM
      1 C          -1.9624    0.6727   -0.4806 C.3     1  UNL1       -0.0007
      2 C          -2.8300   -0.4733    0.0378 C.2     1  UNL1       -0.0268
      3 C          -2.0462   -1.4287    0.5869 C.2     1  UNL1       -0.0497
      4 C          -0.6545   -1.0258    0.4892 C.ar    1  UNL1       -0.0206
      5 C           0.4866   -1.6700    0.9071 C.ar    1  UNL1       -0.0459
      6 C           1.7305   -1.0299    0.6768 C.ar    1  UNL1       -0.0076
      7 C           2.9801   -1.5676    1.0488 C.ar    1  UNL1        0.0077
      8 C           3.2171   -2.7667    1.6799 C.ar    1  UNL1        0.0100
      9 N           4.5791   -2.8818    1.8447 N.ar    1  UNL1       -0.3659
     10 C           5.2118   -1.7737    1.3277 C.ar    1  UNL1        0.0100
     11 C           4.2377   -0.9416    0.8267 C.ar    1  UNL1        0.0077
     12 C           4.4216    0.3101    0.2015 C.ar    1  UNL1       -0.0082
     13 C           5.6788    0.9252   -0.0150 C.ar    1  UNL1       -0.0534
     14 C           5.7441    2.1615   -0.6416 C.ar    1  UNL1       -0.0611
     15 C           4.5706    2.7812   -1.0496 C.ar    1  UNL1       -0.0611
     16 C           3.3251    2.1687   -0.8335 C.ar    1  UNL1       -0.0534
     17 C           3.1785    0.9093   -0.2014 C.ar    1  UNL1       -0.0095
     18 C           1.8621    0.2597    0.0281 C.ar    1  UNL1       -0.0092
     19 C           0.6363    0.8497   -0.3687 C.ar    1  UNL1       -0.0494
     20 C          -0.5804    0.2116   -0.1373 C.ar    1  UNL1       -0.0353
     21 C          -4.2523   -0.6021   -0.0065 C.ar    1  UNL1        0.0395
     22 S          -5.1547   -1.9659    0.6240 S.2     1  UNL1       -0.0943
     23 C          -6.6958   -1.3224    0.1740 C.ar    1  UNL1       -0.0145
     24 C          -6.4764   -0.1347   -0.4190 C.ar    1  UNL1        0.0073
     25 C          -7.1960    0.9240   -1.0185 C.ar    1  UNL1       -0.0361
     26 C          -6.2474    1.8779   -1.4349 C.ar    1  UNL1        0.0028
     27 N          -4.9476    1.4777   -1.1286 N.ar    1  UNL1       -0.3598
     28 C          -5.1605    0.2677   -0.5237 C.ar    1  UNL1        0.0611
     29 H          -2.1939    1.6076    0.0394 H       1  UNL1        0.0362
     30 H          -2.0690    0.7880   -1.5638 H       1  UNL1        0.0362
     31 H          -2.3420   -2.3617    1.0407 H       1  UNL1        0.0627
     32 H           0.4281   -2.6352    1.3958 H       1  UNL1        0.0630
     33 H           2.5600   -3.5507    2.0294 H       1  UNL1        0.0813
     34 H           5.0464   -3.6657    2.2816 H       1  UNL1        0.1648
     35 H           6.2890   -1.6938    1.3707 H       1  UNL1        0.0813
     36 H           6.5966    0.4410    0.3038 H       1  UNL1        0.0624
     37 H           6.7046    2.6395   -0.8111 H       1  UNL1        0.0618
     38 H           4.6141    3.7502   -1.5413 H       1  UNL1        0.0618
     39 H           2.4559    2.7188   -1.1823 H       1  UNL1        0.0624
     40 H           0.6087    1.8142   -0.8637 H       1  UNL1        0.0627
     41 H          -7.6162   -1.8510    0.3741 H       1  UNL1        0.0700
     42 H          -8.2671    1.0090   -1.1451 H       1  UNL1        0.0639
     43 H          -6.3982    2.8267   -1.9339 H       1  UNL1        0.0807
     44 H          -4.0726    1.9503   -1.3036 H       1  UNL1        0.1654
@<TRIPOS>BOND
     1     1     2    1
     2     2     3    2
     3     3     4    1
     4     4     5   ar
     5     5     6   ar
     6     6     7   ar
     7     7     8   ar
     8     8     9   ar
     9     9    10   ar
    10    10    11   ar
    11    11    12   ar
    12    12    13   ar
    13    13    14   ar
    14    14    15   ar
    15    15    16   ar
    16    16    17   ar
    17    17    18   ar
    18    18    19   ar
    19    19    20   ar
    20     2    21    1
    21    21    22   ar
    22    22    23   ar
    23    23    24   ar
    24    24    25   ar
    25    25    26   ar
    26    26    27   ar
    27    27    28   ar
    28    20     1    1
    29    28    21   ar
    30    20     4   ar
    31    28    24   ar
    32    18     6   ar
    33    11     7   ar
    34    17    12   ar
    35     1    29    1
    36     1    30    1
    37     3    31    1
    38     5    32    1
    39     8    33    1
    40     9    34    1
    41    10    35    1
    42    13    36    1
    43    14    37    1
    44    15    38    1
    45    16    39    1
    46    19    40    1
    47    23    41    1
    48    25    42    1
    49    26    43    1
    50    27    44    1
