@<TRIPOS>MOLECULE
*****
 44 51 0 0 0
SMALL
GASTEIGER

@<TRIPOS>ATOM
      1 C           1.3145    1.1883   -0.1829 C.3     1  UNL1       -0.0012
      2 C           2.3567    0.1149    0.0717 C.2     1  UNL1       -0.0347
      3 C           1.7976   -1.0664    0.3958 C.2     1  UNL1       -0.0502
      4 C           0.3557   -0.9010    0.3626 C.ar    1  UNL1       -0.0206
      5 C          -0.6472   -1.8095    0.6066 C.ar    1  UNL1       -0.0445
      6 C          -1.9918   -1.3744    0.5015 C.ar    1  UNL1        0.0115
      7 C          -3.0484   -2.3063    0.7506 C.ar    1  UNL1        0.1082
      8 N          -2.9011   -3.6022    1.0872 N.ar    1  UNL1       -0.1901
      9 S          -4.4165   -4.2372    1.2614 S.2     1  UNL1        0.1165
     10 N          -5.3358   -2.9062    0.9205 N.ar    1  UNL1       -0.1901
     11 C          -4.4884   -1.8936    0.6517 C.ar    1  UNL1        0.1082
     12 C          -4.8616   -0.5549    0.3054 C.ar    1  UNL1        0.0131
     13 C          -6.2560   -0.2390    0.2315 C.ar    1  UNL1       -0.0497
     14 C          -6.7398    1.0281   -0.0953 C.ar    1  UNL1       -0.0328
     15 C          -5.7594    2.0034   -0.3546 C.ar    1  UNL1        0.1005
     16 N          -6.0306    3.2754   -0.6836 N.ar    1  UNL1       -0.1908
     17 S          -4.5760    4.0319   -0.8892 S.2     1  UNL1        0.1165
     18 N          -3.5404    2.7849   -0.5700 N.ar    1  UNL1       -0.1901
     19 C          -4.2734    1.6927   -0.2824 C.ar    1  UNL1        0.1082
     20 C          -3.7723    0.3669    0.0590 C.ar    1  UNL1        0.0202
     21 C          -2.3584   -0.0274    0.1528 C.ar    1  UNL1       -0.0056
     22 C          -1.2689    0.8500   -0.0826 C.ar    1  UNL1       -0.0493
     23 C           0.0474    0.4114    0.0231 C.ar    1  UNL1       -0.0353
     24 C           3.7777    0.4123   -0.0050 C.ar    1  UNL1       -0.0108
     25 C           4.3791    1.6179    0.4446 C.ar    1  UNL1       -0.0536
     26 C           5.7888    1.9114    0.3586 C.ar    1  UNL1       -0.0605
     27 C           6.7511    1.0396   -0.1974 C.ar    1  UNL1       -0.0510
     28 C           6.1403   -0.1215   -0.6482 C.ar    1  UNL1        0.0204
     29 C           6.7519   -1.1773   -1.2681 C.ar    1  UNL1        0.0994
     30 O           5.8140   -2.1174   -1.5937 O.2     1  UNL1       -0.4698
     31 C           4.5978   -1.6500   -1.1737 C.ar    1  UNL1        0.1000
     32 C           4.7468   -0.4289   -0.5646 C.ar    1  UNL1        0.0272
     33 H           1.3774    1.5684   -1.2073 H       1  UNL1        0.0362
     34 H           1.3832    2.0050    0.5421 H       1  UNL1        0.0362
     35 H           2.2913   -1.9878    0.6597 H       1  UNL1        0.0627
     36 H          -0.4055   -2.8348    0.8727 H       1  UNL1        0.0630
     37 H          -6.9931   -1.0182    0.4385 H       1  UNL1        0.0625
     38 H          -7.7986    1.2509   -0.1471 H       1  UNL1        0.0640
     39 H          -1.4185    1.8896   -0.3522 H       1  UNL1        0.0627
     40 H           3.7485    2.3786    0.9066 H       1  UNL1        0.0624
     41 H           6.1299    2.8711    0.7502 H       1  UNL1        0.0618
     42 H           7.8044    1.2715   -0.2615 H       1  UNL1        0.0625
     43 H           7.7671   -1.4135   -1.5531 H       1  UNL1        0.1035
     44 H           3.7606   -2.2971   -1.3922 H       1  UNL1        0.1036
@<TRIPOS>BOND
     1     1     2    1
     2     2     3    2
     3     3     4    1
     4     4     5   ar
     5     5     6   ar
     6     6     7   ar
     7     7     8   ar
     8     8     9   ar
     9     9    10   ar
    10    10    11   ar
    11    11    12   ar
    12    12    13   ar
    13    13    14   ar
    14    14    15   ar
    15    15    16   ar
    16    16    17   ar
    17    17    18   ar
    18    18    19   ar
    19    19    20   ar
    20    20    21   ar
    21    21    22   ar
    22    22    23   ar
    23     2    24    1
    24    24    25   ar
    25    25    26   ar
    26    26    27   ar
    27    27    28   ar
    28    28    29   ar
    29    29    30   ar
    30    30    31   ar
    31    31    32   ar
    32    23     1    1
    33    32    24   ar
    34    23     4   ar
    35    32    28   ar
    36    21     6   ar
    37    11     7   ar
    38    20    12   ar
    39    19    15   ar
    40     1    33    1
    41     1    34    1
    42     3    35    1
    43     5    36    1
    44    13    37    1
    45    14    38    1
    46    22    39    1
    47    25    40    1
    48    26    41    1
    49    27    42    1
    50    29    43    1
    51    31    44    1
