@<TRIPOS>MOLECULE
*****
 40 46 0 0 0
SMALL
GASTEIGER

@<TRIPOS>ATOM
      1 C           1.7669    0.4562   -0.1632 C.3     1  UNL1       -0.0007
      2 C           2.6209   -0.8105   -0.1141 C.2     1  UNL1       -0.0281
      3 C           1.8359   -1.9071   -0.0437 C.2     1  UNL1       -0.0497
      4 C           0.4446   -1.4886   -0.0397 C.ar    1  UNL1       -0.0206
      5 C          -0.7101   -2.2401    0.0198 C.ar    1  UNL1       -0.0466
      6 C          -1.9570   -1.5872    0.0093 C.ar    1  UNL1       -0.0166
      7 C          -3.1167   -2.3617    0.0699 C.ar    1  UNL1       -0.0534
      8 C          -4.3817   -1.7760    0.0632 C.ar    1  UNL1       -0.0534
      9 C          -4.5459   -0.3928   -0.0044 C.ar    1  UNL1       -0.0151
     10 C          -5.8746    0.1099   -0.0057 C.ar    1  UNL1       -0.0519
     11 C          -6.2035    1.4690   -0.0690 C.ar    1  UNL1       -0.0329
     12 C          -5.1138    2.3556   -0.1341 C.ar    1  UNL1        0.1005
     13 N          -5.2235    3.6912   -0.2002 N.ar    1  UNL1       -0.1908
     14 S          -3.6815    4.2865   -0.2586 S.2     1  UNL1        0.1165
     15 N          -2.8119    2.8819   -0.2029 N.ar    1  UNL1       -0.1901
     16 C          -3.6842    1.8577   -0.1348 C.ar    1  UNL1        0.1081
     17 C          -3.3750    0.4370   -0.0681 C.ar    1  UNL1        0.0180
     18 C          -2.0542   -0.1639   -0.0616 C.ar    1  UNL1       -0.0078
     19 C          -0.8347    0.5602   -0.1209 C.ar    1  UNL1       -0.0493
     20 C           0.3820   -0.1055   -0.1091 C.ar    1  UNL1       -0.0353
     21 C           4.0487   -0.8725   -0.1370 C.ar    1  UNL1        0.0265
     22 S           4.9661   -2.3754   -0.0751 S.2     1  UNL1       -0.0926
     23 C           6.5078   -1.5977   -0.1440 C.ar    1  UNL1        0.0192
     24 C           6.2885   -0.2750   -0.2092 C.ar    1  UNL1        0.1424
     25 O           7.2400    0.6950   -0.2773 O.2     1  UNL1       -0.4624
     26 C           6.4278    1.8122   -0.3210 C.ar    1  UNL1        0.0932
     27 C           5.0572    1.5263   -0.2809 C.ar    1  UNL1       -0.0150
     28 C           4.9740    0.1214   -0.2059 C.ar    1  UNL1        0.0346
     29 H           1.9298    1.0036   -1.0969 H       1  UNL1        0.0362
     30 H           1.9628    1.0956    0.7032 H       1  UNL1        0.0362
     31 H           2.1295   -2.9437    0.0038 H       1  UNL1        0.0627
     32 H          -0.6442   -3.3231    0.0738 H       1  UNL1        0.0630
     33 H          -3.0520   -3.4475    0.1242 H       1  UNL1        0.0624
     34 H          -5.2467   -2.4364    0.1126 H       1  UNL1        0.0624
     35 H          -6.7086   -0.5937    0.0454 H       1  UNL1        0.0624
     36 H          -7.2281    1.8198   -0.0682 H       1  UNL1        0.0640
     37 H          -0.8168    1.6426   -0.1764 H       1  UNL1        0.0627
     38 H           7.4503   -2.1247   -0.1337 H       1  UNL1        0.0731
     39 H           6.9714    2.7463   -0.3798 H       1  UNL1        0.1030
     40 H           4.2603    2.2549   -0.3045 H       1  UNL1        0.0655
@<TRIPOS>BOND
     1     1     2    1
     2     2     3    2
     3     3     4    1
     4     4     5   ar
     5     5     6   ar
     6     6     7   ar
     7     7     8   ar
     8     8     9   ar
     9     9    10   ar
    10    10    11   ar
    11    11    12   ar
    12    12    13   ar
    13    13    14   ar
    14    14    15   ar
    15    15    16   ar
    16    16    17   ar
    17    17    18   ar
    18    18    19   ar
    19    19    20   ar
    20     2    21    1
    21    21    22   ar
    22    22    23   ar
    23    23    24   ar
    24    24    25   ar
    25    25    26   ar
    26    26    27   ar
    27    27    28   ar
    28    20     1    1
    29    28    21   ar
    30    20     4   ar
    31    28    24   ar
    32    18     6   ar
    33    17     9   ar
    34    16    12   ar
    35     1    29    1
    36     1    30    1
    37     3    31    1
    38     5    32    1
    39     7    33    1
    40     8    34    1
    41    10    35    1
    42    11    36    1
    43    19    37    1
    44    23    38    1
    45    26    39    1
    46    27    40    1
