@<TRIPOS>MOLECULE
*****
 37 42 0 0 0
SMALL
GASTEIGER

@<TRIPOS>ATOM
      1 C          -0.7138    0.6173    0.0606 C.3     1  UNL1        0.0000
      2 C          -1.5940   -0.6069   -0.1942 C.2     1  UNL1        0.0000
      3 C          -0.8239   -1.7098   -0.3309 C.2     1  UNL1        0.0000
      4 C           0.5746   -1.3425   -0.1870 C.ar    1  UNL1        0.0000
      5 C           1.7078   -2.1349   -0.2507 C.ar    1  UNL1        0.0000
      6 C           2.9664   -1.5290   -0.0757 C.ar    1  UNL1        0.0000
      7 C           4.1523   -2.2553   -0.1254 C.ar    1  UNL1        0.0000
      8 N           5.3959   -1.7588    0.0307 N.ar    1  UNL1        0.0000
      9 C           5.4749   -0.4206    0.2567 C.ar    1  UNL1        0.0000
     10 C           6.6975    0.2882    0.4465 C.ar    1  UNL1        0.0000
     11 C           6.5015    1.6322    0.6572 C.ar    1  UNL1        0.0000
     12 S           4.8472    2.0468    0.6275 S.2     1  UNL1        0.0000
     13 C           4.3566    0.4155    0.3285 C.ar    1  UNL1        0.0000
     14 C           3.0541   -0.1336    0.1603 C.ar    1  UNL1        0.0000
     15 C           1.8834    0.6563    0.2214 C.ar    1  UNL1        0.0000
     16 C           0.6617    0.0290    0.0451 C.ar    1  UNL1        0.0000
     17 C          -3.0274   -0.6447   -0.2856 C.ar    1  UNL1        0.0000
     18 S          -3.9078   -2.1325   -0.5808 S.2     1  UNL1        0.0000
     19 C          -5.4508   -1.3780   -0.5492 C.ar    1  UNL1        0.0000
     20 C          -5.3245   -0.0382   -0.3228 C.ar    1  UNL1        0.0000
     21 C          -6.3308    0.9744   -0.2172 C.2     1  UNL1        0.0000
     22 C          -5.8631    2.2194    0.0140 C.2     1  UNL1        0.0000
     23 SI         -3.9640    2.2276    0.1281 Si      1  UNL1        0.0000
     24 C          -3.9631    0.3559   -0.1776 C.ar    1  UNL1        0.0000
     25 H          -0.9298    1.0609    1.0373 H       1  UNL1        0.0000
     26 H          -0.8240    1.3548   -0.7403 H       1  UNL1        0.0000
     27 H          -1.1332   -2.7263   -0.5175 H       1  UNL1        0.0000
     28 H           1.6182   -3.2017   -0.4325 H       1  UNL1        0.0000
     29 H           4.1326   -3.3289   -0.3041 H       1  UNL1        0.0000
     30 H           7.6721   -0.1813    0.4267 H       1  UNL1        0.0000
     31 H           7.2525    2.3915    0.8273 H       1  UNL1        0.0000
     32 H           1.9244    1.7257    0.4008 H       1  UNL1        0.0000
     33 H          -6.3480   -1.9619   -0.6978 H       1  UNL1        0.0000
     34 H          -7.3861    0.7469   -0.3170 H       1  UNL1        0.0000
     35 H          -6.4352    3.1259    0.1281 H       1  UNL1        0.0000
     36 H          -3.5002    2.6070    1.4858 H       1  UNL1        0.0000
     37 H          -3.3540    3.0093   -0.9763 H       1  UNL1        0.0000
@<TRIPOS>BOND
     1     1     2    1
     2     2     3    2
     3     3     4    1
     4     4     5   ar
     5     5     6   ar
     6     6     7   ar
     7     7     8   ar
     8     8     9   ar
     9     9    10   ar
    10    10    11   ar
    11    11    12   ar
    12    12    13   ar
    13    13    14   ar
    14    14    15   ar
    15    15    16   ar
    16     2    17    1
    17    17    18   ar
    18    18    19   ar
    19    19    20   ar
    20    20    21    1
    21    21    22    2
    22    22    23    1
    23    23    24    1
    24    16     1    1
    25    24    17   ar
    26    16     4   ar
    27    24    20   ar
    28    14     6   ar
    29    13     9   ar
    30     1    25    1
    31     1    26    1
    32     3    27    1
    33     5    28    1
    34     7    29    1
    35    10    30    1
    36    11    31    1
    37    15    32    1
    38    19    33    1
    39    21    34    1
    40    22    35    1
    41    23    36    1
    42    23    37    1
