@<TRIPOS>MOLECULE
*****
 36 41 0 0 0
SMALL
GASTEIGER

@<TRIPOS>ATOM
      1 C          -0.7181    1.0314   -0.4785 C.3     1  UNL1        0.0000
      2 C          -1.8605    0.0908   -0.0897 C.2     1  UNL1        0.0000
      3 C          -1.3750   -1.0542    0.4340 C.2     1  UNL1        0.0000
      4 C           0.0784   -0.9932    0.4457 C.ar    1  UNL1        0.0000
      5 C           0.9935   -1.9438    0.8941 C.ar    1  UNL1        0.0000
      6 C           2.3646   -1.6670    0.8076 C.ar    1  UNL1        0.0000
      7 C           2.7764   -0.4468    0.2745 C.ar    1  UNL1        0.0000
      8 C           1.8296    0.5203   -0.1822 C.ar    1  UNL1        0.0000
      9 SI          2.7362    2.0823   -0.8543 Si      1  UNL1        0.0000
     10 C           4.3768    1.2677   -0.4469 C.ar    1  UNL1        0.0000
     11 C           5.7424    1.5097   -0.5180 C.ar    1  UNL1        0.0000
     12 C           6.3391    0.3731    0.0048 C.ar    1  UNL1        0.0000
     13 N           5.3565   -0.5267    0.3796 N.ar    1  UNL1        0.0000
     14 C           4.1414    0.0244    0.1011 C.ar    1  UNL1        0.0000
     15 C           0.4841    0.2336   -0.0904 C.ar    1  UNL1        0.0000
     16 C          -3.2637    0.3188   -0.2289 C.ar    1  UNL1        0.0000
     17 S          -3.8348    1.8406   -0.9185 S.2     1  UNL1        0.0000
     18 C          -5.5057    1.4314   -0.7827 C.ar    1  UNL1        0.0000
     19 C          -5.5781    0.2051   -0.2416 C.ar    1  UNL1        0.0000
     20 O          -6.7227   -0.4788    0.0300 O.2     1  UNL1        0.0000
     21 C          -6.1814   -1.6344    0.5564 C.ar    1  UNL1        0.0000
     22 C          -4.7818   -1.6432    0.5983 C.ar    1  UNL1        0.0000
     23 C          -4.3813   -0.4016    0.0596 C.ar    1  UNL1        0.0000
     24 H          -0.7679    1.9643    0.0920 H       1  UNL1        0.0000
     25 H          -0.7237    1.2300   -1.5549 H       1  UNL1        0.0000
     26 H          -1.9168   -1.9089    0.8008 H       1  UNL1        0.0000
     27 H           0.6531   -2.8886    1.3063 H       1  UNL1        0.0000
     28 H           3.0864   -2.3990    1.1534 H       1  UNL1        0.0000
     29 H           2.4807    2.2583   -2.3080 H       1  UNL1        0.0000
     30 H           2.4192    3.2756   -0.0266 H       1  UNL1        0.0000
     31 H           6.2598    2.3830   -0.8934 H       1  UNL1        0.0000
     32 H           7.3818    0.1220    0.1449 H       1  UNL1        0.0000
     33 H           5.5181   -1.4366    0.7896 H       1  UNL1        0.0000
     34 H          -6.3132    2.0786   -1.0913 H       1  UNL1        0.0000
     35 H          -6.9195   -2.3654    0.8600 H       1  UNL1        0.0000
     36 H          -4.1738   -2.4525    0.9731 H       1  UNL1        0.0000
@<TRIPOS>BOND
     1     1     2    1
     2     2     3    2
     3     3     4    1
     4     4     5   ar
     5     5     6   ar
     6     6     7   ar
     7     7     8   ar
     8     8     9    1
     9     9    10    1
    10    10    11   ar
    11    11    12   ar
    12    12    13   ar
    13    13    14   ar
    14     8    15   ar
    15     2    16    1
    16    16    17   ar
    17    17    18   ar
    18    18    19   ar
    19    19    20   ar
    20    20    21   ar
    21    21    22   ar
    22    22    23   ar
    23    15     1    1
    24    23    16   ar
    25    15     4   ar
    26    23    19   ar
    27     7    14    1
    28    14    10   ar
    29     1    24    1
    30     1    25    1
    31     3    26    1
    32     5    27    1
    33     6    28    1
    34     9    29    1
    35     9    30    1
    36    11    31    1
    37    12    32    1
    38    13    33    1
    39    18    34    1
    40    21    35    1
    41    22    36    1
