@<TRIPOS>MOLECULE
*****
 50 57 0 0 0
SMALL
GASTEIGER

@<TRIPOS>ATOM
      1 C           1.8377    0.0658   -0.1927 C.3     1  UNL1       -0.0007
      2 C           2.6390   -1.0421    0.4597 C.2     1  UNL1       -0.0347
      3 C           1.8541   -1.9702    1.0267 C.2     1  UNL1       -0.0502
      4 C           0.4762   -1.5666    0.8092 C.ar    1  UNL1       -0.0206
      5 C          -0.6808   -2.1859    1.2147 C.ar    1  UNL1       -0.0537
      6 C          -1.9107   -1.6048    0.8657 C.ar    1  UNL1       -0.0528
      7 C          -2.0509   -0.4169    0.0973 C.ar    1  UNL1       -0.0086
      8 C          -0.8065    0.2182   -0.2609 C.ar    1  UNL1       -0.0041
      9 C           0.4298   -0.3761    0.0841 C.ar    1  UNL1       -0.0276
     10 C          -1.0120    1.4451   -0.9435 C.ar    1  UNL1        0.0080
     11 C          -0.0495    2.3049   -1.4281 C.ar    1  UNL1        0.0100
     12 N          -0.6908    3.3763   -2.0039 N.ar    1  UNL1       -0.3659
     13 C          -2.0511    3.2146   -1.9005 C.ar    1  UNL1        0.0100
     14 C          -2.2823    2.0238   -1.2454 C.ar    1  UNL1        0.0077
     15 C          -3.5432    1.4639   -0.9510 C.ar    1  UNL1       -0.0075
     16 C          -4.7952    2.1267   -1.2941 C.ar    1  UNL1       -0.0527
     17 C          -6.0621    1.5764   -1.0652 C.ar    1  UNL1       -0.0520
     18 C          -5.9345    0.3196   -0.5102 C.ar    1  UNL1        0.0000
     19 C          -7.0059   -0.4936   -0.2434 C.ar    1  UNL1        0.0094
     20 N          -6.4940   -1.6726    0.2321 N.ar    1  UNL1       -0.3659
     21 C          -5.1140   -1.6127    0.2569 C.ar    1  UNL1        0.0100
     22 C          -4.7168   -0.3581   -0.1505 C.ar    1  UNL1        0.0077
     23 C          -3.3811    0.1648   -0.2933 C.ar    1  UNL1       -0.0004
     24 C           4.0856   -1.1233    0.3546 C.ar    1  UNL1       -0.0133
     25 C           4.7547   -2.2380   -0.2064 C.ar    1  UNL1       -0.0537
     26 C           6.1705   -2.3103   -0.4067 C.ar    1  UNL1       -0.0606
     27 C           7.0666   -1.2749   -0.0662 C.ar    1  UNL1       -0.0535
     28 C           6.4113   -0.1886    0.5154 C.ar    1  UNL1       -0.0103
     29 C           7.0863    0.9346    0.9323 C.ar    1  UNL1       -0.0166
     30 S           6.0176    2.0727    1.6436 S.2     1  UNL1       -0.1039
     31 C           4.6494    1.0580    1.3832 C.ar    1  UNL1       -0.0160
     32 C           4.9834   -0.1049    0.7276 C.ar    1  UNL1       -0.0035
     33 H           2.0341    0.0993   -1.2688 H       1  UNL1        0.0362
     34 H           2.0267    1.0335    0.2749 H       1  UNL1        0.0362
     35 H           2.1540   -2.8749    1.5270 H       1  UNL1        0.0627
     36 H          -0.6541   -3.0986    1.8007 H       1  UNL1        0.0624
     37 H          -2.7858   -2.1019    1.2605 H       1  UNL1        0.0624
     38 H           1.0295    2.2804   -1.4351 H       1  UNL1        0.0813
     39 H          -0.2277    4.1618   -2.4541 H       1  UNL1        0.1648
     40 H          -2.7126    3.9626   -2.3156 H       1  UNL1        0.0813
     41 H          -4.7599    3.1070   -1.7595 H       1  UNL1        0.0624
     42 H          -6.9870    2.0651   -1.3302 H       1  UNL1        0.0624
     43 H          -8.0721   -0.3587   -0.3658 H       1  UNL1        0.0813
     44 H          -7.0426   -2.4829    0.4881 H       1  UNL1        0.1648
     45 H          -4.5812   -2.5023    0.5419 H       1  UNL1        0.0813
     46 H           4.1594   -3.0924   -0.5303 H       1  UNL1        0.0624
     47 H           6.5751   -3.2166   -0.8642 H       1  UNL1        0.0618
     48 H           8.1325   -1.3441   -0.2354 H       1  UNL1        0.0624
     49 H           8.1442    1.1513    0.8792 H       1  UNL1        0.0699
     50 H           3.6865    1.3855    1.7425 H       1  UNL1        0.0700
@<TRIPOS>BOND
     1     1     2    1
     2     2     3    2
     3     3     4    1
     4     4     5   ar
     5     5     6   ar
     6     6     7   ar
     7     7     8   ar
     8     8     9   ar
     9     8    10   ar
    10    10    11   ar
    11    11    12   ar
    12    12    13   ar
    13    13    14   ar
    14    14    15   ar
    15    15    16   ar
    16    16    17   ar
    17    17    18   ar
    18    18    19   ar
    19    19    20   ar
    20    20    21   ar
    21    21    22   ar
    22    22    23   ar
    23     2    24    1
    24    24    25   ar
    25    25    26   ar
    26    26    27   ar
    27    27    28   ar
    28    28    29   ar
    29    29    30   ar
    30    30    31   ar
    31    31    32   ar
    32     9     1    1
    33    14    10   ar
    34    23    15   ar
    35    32    24   ar
    36     9     4   ar
    37    22    18   ar
    38    32    28   ar
    39    23     7   ar
    40     1    33    1
    41     1    34    1
    42     3    35    1
    43     5    36    1
    44     6    37    1
    45    11    38    1
    46    12    39    1
    47    13    40    1
    48    16    41    1
    49    17    42    1
    50    19    43    1
    51    20    44    1
    52    21    45    1
    53    25    46    1
    54    26    47    1
    55    27    48    1
    56    29    49    1
    57    31    50    1
