@<TRIPOS>MOLECULE
*****
 46 52 0 0 0
SMALL
GASTEIGER

@<TRIPOS>ATOM
      1 C           2.4841   -0.2640    0.4207 C.3     1  UNL1        0.0000
      2 C           3.4323    0.0791   -0.7152 C.2     1  UNL1        0.0000
      3 C           2.7584    0.5439   -1.7830 C.2     1  UNL1        0.0000
      4 C           1.3429    0.5412   -1.4596 C.ar    1  UNL1        0.0000
      5 C           0.2899    0.9663   -2.2315 C.ar    1  UNL1        0.0000
      6 C          -1.0034    0.8649   -1.7040 C.ar    1  UNL1        0.0000
      7 C          -1.3106    0.3182   -0.4248 C.ar    1  UNL1        0.0000
      8 C          -0.1657   -0.0344    0.3876 C.ar    1  UNL1        0.0000
      9 C           1.1386    0.0599   -0.1652 C.ar    1  UNL1        0.0000
     10 C          -0.5319   -0.4227    1.7173 C.ar    1  UNL1        0.0000
     11 C           0.3548   -0.8099    2.6975 C.ar    1  UNL1        0.0000
     12 S          -0.4136   -1.1542    4.1906 S.2     1  UNL1        0.0000
     13 C          -1.9547   -0.7871    3.5453 C.ar    1  UNL1        0.0000
     14 C          -1.8896   -0.4142    2.2200 C.ar    1  UNL1        0.0000
     15 C          -3.0090   -0.0837    1.4414 C.ar    1  UNL1        0.0000
     16 C          -4.3604    0.0517    2.0138 C.ar    1  UNL1        0.0000
     17 C          -5.4203    0.3161    1.2359 C.ar    1  UNL1        0.0000
     18 C          -5.2588    0.3758   -0.1952 C.ar    1  UNL1        0.0000
     19 C          -6.3007    0.4393   -1.0460 C.2     1  UNL1        0.0000
     20 SI         -5.7370    0.2467   -2.8074 Si      1  UNL1        0.0000
     21 C          -3.9896    0.0643   -2.1575 C.2     1  UNL1        0.0000
     22 C          -3.9161    0.2512   -0.8204 C.ar    1  UNL1        0.0000
     23 C          -2.6900    0.1738    0.0607 C.ar    1  UNL1        0.0000
     24 C           4.8903   -0.0918   -0.5970 C.ar    1  UNL1        0.0000
     25 C           5.4838   -0.5519    0.5849 C.ar    1  UNL1        0.0000
     26 C           6.8682   -0.7069    0.6714 C.ar    1  UNL1        0.0000
     27 C           7.6360   -0.3966   -0.4357 C.ar    1  UNL1        0.0000
     28 N           7.1179    0.0482   -1.5963 N.ar    1  UNL1        0.0000
     29 C           5.7679    0.1877   -1.6466 C.ar    1  UNL1        0.0000
     30 H           2.5499   -1.3279    0.6698 H       1  UNL1        0.0000
     31 H           2.6892    0.3698    1.2894 H       1  UNL1        0.0000
     32 H           3.1421    0.8746   -2.7343 H       1  UNL1        0.0000
     33 H           0.4479    1.3875   -3.2191 H       1  UNL1        0.0000
     34 H          -1.7923    1.2908   -2.3178 H       1  UNL1        0.0000
     35 H           1.4247   -0.9227    2.6648 H       1  UNL1        0.0000
     36 H          -2.8149   -0.8882    4.1906 H       1  UNL1        0.0000
     37 H          -4.4993   -0.0114    3.0856 H       1  UNL1        0.0000
     38 H          -6.4094    0.4353    1.6653 H       1  UNL1        0.0000
     39 H          -7.3476    0.4947   -0.7929 H       1  UNL1        0.0000
     40 H          -5.9112    1.4844   -3.6051 H       1  UNL1        0.0000
     41 H          -6.2377   -0.9988   -3.4367 H       1  UNL1        0.0000
     42 H          -3.2043   -0.1862   -2.8495 H       1  UNL1        0.0000
     43 H           4.8873   -0.7972    1.4588 H       1  UNL1        0.0000
     44 H           7.3339   -1.0621    1.5839 H       1  UNL1        0.0000
     45 H           8.7168   -0.5005   -0.4177 H       1  UNL1        0.0000
     46 H           5.4112    0.5471   -2.6073 H       1  UNL1        0.0000
@<TRIPOS>BOND
     1     1     2    1
     2     2     3    2
     3     3     4    1
     4     4     5   ar
     5     5     6   ar
     6     6     7   ar
     7     7     8   ar
     8     8     9   ar
     9     8    10   ar
    10    10    11   ar
    11    11    12   ar
    12    12    13   ar
    13    13    14   ar
    14    14    15   ar
    15    15    16   ar
    16    16    17   ar
    17    17    18   ar
    18    18    19    2
    19    19    20    1
    20    20    21    1
    21    21    22    2
    22    22    23   ar
    23     2    24    1
    24    24    25   ar
    25    25    26   ar
    26    26    27   ar
    27    27    28   ar
    28    28    29   ar
    29     9     1    1
    30    14    10   ar
    31    23    15   ar
    32    29    24   ar
    33     9     4   ar
    34    22    18   ar
    35    23     7   ar
    36     1    30    1
    37     1    31    1
    38     3    32    1
    39     5    33    1
    40     6    34    1
    41    11    35    1
    42    13    36    1
    43    16    37    1
    44    17    38    1
    45    19    39    1
    46    20    40    1
    47    20    41    1
    48    21    42    1
    49    25    43    1
    50    26    44    1
    51    27    45    1
    52    29    46    1
