@<TRIPOS>MOLECULE
*****
 38 43 0 0 0
SMALL
GASTEIGER

@<TRIPOS>ATOM
      1 C          -1.3317   -0.3276   -0.0043 C.3     1  UNL1       -0.0001
      2 C          -2.2827    0.8449    0.2215 C.2     1  UNL1       -0.0281
      3 C          -1.5874    1.9785    0.4499 C.2     1  UNL1       -0.0497
      4 C          -0.1675    1.6769    0.3991 C.ar    1  UNL1       -0.0206
      5 C           0.9121    2.5141    0.5712 C.ar    1  UNL1       -0.0537
      6 C           2.1972    1.9656    0.4706 C.ar    1  UNL1       -0.0528
      7 C           2.4287    0.5825    0.1985 C.ar    1  UNL1       -0.0070
      8 C           1.2927   -0.2414    0.0288 C.ar    1  UNL1        0.0049
      9 C           1.5012   -1.5918   -0.2369 C.ar    1  UNL1        0.0363
     10 N           2.7116   -2.1756   -0.3450 N.ar    1  UNL1       -0.2543
     11 C           3.7951   -1.4059   -0.1863 C.ar    1  UNL1        0.0716
     12 C           5.0347   -2.0207   -0.3004 C.ar    1  UNL1       -0.0357
     13 C           6.2282   -1.3143   -0.1537 C.ar    1  UNL1       -0.0597
     14 C           6.1870    0.0439    0.1146 C.ar    1  UNL1       -0.0611
     15 C           4.9528    0.6845    0.2338 C.ar    1  UNL1       -0.0520
     16 C           3.7282   -0.0184    0.0876 C.ar    1  UNL1        0.0081
     17 C           0.0142    0.3209    0.1321 C.ar    1  UNL1       -0.0267
     18 C          -3.7111    0.7955    0.2027 C.ar    1  UNL1        0.0265
     19 S          -4.7437    2.1972    0.4737 S.2     1  UNL1       -0.0926
     20 C          -6.2197    1.3176    0.2902 C.ar    1  UNL1        0.0192
     21 C          -5.8974    0.0390    0.0391 C.ar    1  UNL1        0.1424
     22 O          -6.7702   -0.9835   -0.1689 O.2     1  UNL1       -0.4624
     23 C          -5.8733   -2.0158   -0.3676 C.ar    1  UNL1        0.0932
     24 C          -4.5290   -1.6312   -0.2830 C.ar    1  UNL1       -0.0150
     25 C          -4.5556   -0.2489   -0.0094 C.ar    1  UNL1        0.0346
     26 H          -1.4736   -1.0965    0.7618 H       1  UNL1        0.0362
     27 H          -1.4627   -0.7469   -1.0070 H       1  UNL1        0.0362
     28 H          -1.9624    2.9712    0.6438 H       1  UNL1        0.0627
     29 H           0.7784    3.5707    0.7792 H       1  UNL1        0.0624
     30 H           3.0328    2.6469    0.6103 H       1  UNL1        0.0624
     31 H           0.6702   -2.2776   -0.3775 H       1  UNL1        0.0836
     32 H           5.0719   -3.0874   -0.5111 H       1  UNL1        0.0639
     33 H           7.1803   -1.8288   -0.2497 H       1  UNL1        0.0618
     34 H           7.1090    0.6077    0.2315 H       1  UNL1        0.0618
     35 H           4.9638    1.7499    0.4445 H       1  UNL1        0.0624
     36 H          -7.2007    1.7616    0.3719 H       1  UNL1        0.0731
     37 H          -6.3426   -2.9720   -0.5600 H       1  UNL1        0.1030
     38 H          -3.6785   -2.2850   -0.4070 H       1  UNL1        0.0655
@<TRIPOS>BOND
     1     1     2    1
     2     2     3    2
     3     3     4    1
     4     4     5   ar
     5     5     6   ar
     6     6     7   ar
     7     7     8   ar
     8     8     9   ar
     9     9    10   ar
    10    10    11   ar
    11    11    12   ar
    12    12    13   ar
    13    13    14   ar
    14    14    15   ar
    15    15    16   ar
    16     8    17   ar
    17     2    18    1
    18    18    19   ar
    19    19    20   ar
    20    20    21   ar
    21    21    22   ar
    22    22    23   ar
    23    23    24   ar
    24    24    25   ar
    25    17     1    1
    26    25    18   ar
    27    17     4   ar
    28    25    21   ar
    29    16     7   ar
    30    16    11   ar
    31     1    26    1
    32     1    27    1
    33     3    28    1
    34     5    29    1
    35     6    30    1
    36     9    31    1
    37    12    32    1
    38    13    33    1
    39    14    34    1
    40    15    35    1
    41    20    36    1
    42    23    37    1
    43    24    38    1
