@<TRIPOS>MOLECULE
*****
 36 41 0 0 0
SMALL
GASTEIGER

@<TRIPOS>ATOM
      1 C           1.3966   -0.6135   -0.4631 C.3     1  UNL1        0.0007
      2 C           2.5194    0.1519    0.2410 C.2     1  UNL1       -0.0192
      3 C           2.0128    1.1030    1.0524 C.2     1  UNL1       -0.0489
      4 C           0.5610    1.0643    0.9699 C.ar    1  UNL1       -0.0205
      5 C          -0.3702    1.8527    1.6254 C.ar    1  UNL1       -0.0537
      6 C          -1.7306    1.6288    1.3847 C.ar    1  UNL1       -0.0514
      7 C          -2.1504    0.6151    0.4879 C.ar    1  UNL1        0.0085
      8 C          -3.5334    0.3895    0.2450 C.ar    1  UNL1        0.0565
      9 N          -4.6790    0.9939    0.7330 N.ar    1  UNL1       -0.3601
     10 C          -5.8045    0.4122    0.1887 C.ar    1  UNL1        0.0028
     11 C          -5.4090   -0.5904   -0.6711 C.ar    1  UNL1       -0.0345
     12 C          -4.0135   -0.5797   -0.6151 C.ar    1  UNL1        0.0284
     13 C          -3.0986   -1.4198   -1.3161 C.ar    1  UNL1        0.1096
     14 N          -3.4949   -2.3662   -2.1535 N.ar    1  UNL1       -0.1901
     15 S          -2.0407   -3.0163   -2.6708 S.2     1  UNL1        0.1165
     16 N          -0.9558   -2.0731   -1.8132 N.ar    1  UNL1       -0.1901
     17 C          -1.6814   -1.2011   -1.0781 C.ar    1  UNL1        0.1085
     18 C          -1.1821   -0.1927   -0.1832 C.ar    1  UNL1        0.0163
     19 C           0.1722    0.0581    0.0806 C.ar    1  UNL1       -0.0260
     20 C           3.9135   -0.0853    0.0814 C.ar    1  UNL1        0.0428
     21 C           4.6030   -1.0027   -0.6924 C.ar    1  UNL1       -0.0367
     22 C           5.9887   -0.8094   -0.4786 C.ar    1  UNL1       -0.0438
     23 C           6.1191    0.2218    0.4210 C.ar    1  UNL1        0.0022
     24 N           4.8604    0.6535    0.7541 N.ar    1  UNL1       -0.3609
     25 H           1.4686   -0.4874   -1.5480 H       1  UNL1        0.0362
     26 H           1.4230   -1.6724   -0.1873 H       1  UNL1        0.0362
     27 H           2.5320    1.8057    1.6819 H       1  UNL1        0.0627
     28 H          -0.0559    2.6310    2.3137 H       1  UNL1        0.0624
     29 H          -2.4532    2.2524    1.9036 H       1  UNL1        0.0624
     30 H          -4.6907    1.7560    1.3963 H       1  UNL1        0.1654
     31 H          -6.7896    0.7657    0.4635 H       1  UNL1        0.0807
     32 H          -6.0538   -1.2352   -1.2543 H       1  UNL1        0.0639
     33 H           4.1531   -1.7388   -1.3465 H       1  UNL1        0.0639
     34 H           6.8001   -1.3631   -0.9325 H       1  UNL1        0.0633
     35 H           6.9948    0.6863    0.8533 H       1  UNL1        0.0807
     36 H           4.6691    1.4053    1.4003 H       1  UNL1        0.1653
@<TRIPOS>BOND
     1     1     2    1
     2     2     3    2
     3     3     4    1
     4     4     5   ar
     5     5     6   ar
     6     6     7   ar
     7     7     8   ar
     8     8     9   ar
     9     9    10   ar
    10    10    11   ar
    11    11    12   ar
    12    12    13   ar
    13    13    14   ar
    14    14    15   ar
    15    15    16   ar
    16    16    17   ar
    17    17    18   ar
    18    18    19   ar
    19     2    20    1
    20    20    21   ar
    21    21    22   ar
    22    22    23   ar
    23    23    24   ar
    24    19     1    1
    25    24    20   ar
    26    19     4   ar
    27    18     7   ar
    28    12     8   ar
    29    17    13   ar
    30     1    25    1
    31     1    26    1
    32     3    27    1
    33     5    28    1
    34     6    29    1
    35     9    30    1
    36    10    31    1
    37    11    32    1
    38    21    33    1
    39    22    34    1
    40    23    35    1
    41    24    36    1
