@<TRIPOS>MOLECULE
*****
 36 41 0 0 0
SMALL
GASTEIGER

@<TRIPOS>ATOM
      1 SI          1.6815    3.4198   -1.9179 Si      1  UNL1        0.0000
      2 C           2.6881    2.0099   -1.2175 C.2     1  UNL1        0.0000
      3 C           1.9007    1.0719   -0.6475 C.ar    1  UNL1        0.0000
      4 C           2.3924   -0.1702    0.0052 C.ar    1  UNL1        0.0000
      5 C           1.4882   -1.0245    0.5525 C.ar    1  UNL1        0.0000
      6 C           0.1165   -0.6699    0.4701 C.ar    1  UNL1        0.0000
      7 N          -0.8866   -1.4443    0.9859 N.ar    1  UNL1        0.0000
      8 C          -2.0680   -0.8147    0.7301 C.ar    1  UNL1        0.0000
      9 C          -1.8564    0.3724    0.0486 C.ar    1  UNL1        0.0000
     10 C          -2.9862    1.1374   -0.2869 C.ar    1  UNL1        0.0000
     11 N          -4.2714    0.7919    0.0114 N.ar    1  UNL1        0.0000
     12 C          -4.5100   -0.3614    0.6762 C.ar    1  UNL1        0.0000
     13 C          -5.7190   -0.9541    1.1066 C.ar    1  UNL1        0.0000
     14 C          -5.3984   -2.1401    1.7441 C.ar    1  UNL1        0.0000
     15 N          -4.0295   -2.2837    1.7126 N.ar    1  UNL1        0.0000
     16 C          -3.5027   -1.2099    1.0686 C.ar    1  UNL1        0.0000
     17 C          -0.4507    0.4538   -0.1120 C.ar    1  UNL1        0.0000
     18 C           0.4376    1.3974   -0.7110 C.ar    1  UNL1        0.0000
     19 C           0.1366    2.5560   -1.3258 C.2     1  UNL1        0.0000
     20 C           3.7684   -0.5566    0.0658 C.ar    1  UNL1        0.0000
     21 C           4.6289   -0.9248   -0.9563 C.ar    1  UNL1        0.0000
     22 N           5.9259   -1.2301   -0.5890 N.ar    1  UNL1        0.0000
     23 C           6.0482   -1.0810    0.7103 C.ar    1  UNL1        0.0000
     24 S           4.6435   -0.5814    1.5541 S.2     1  UNL1        0.0000
     25 H           1.9253    4.6962   -1.2048 H       1  UNL1        0.0000
     26 H           1.7603    3.4859   -3.3966 H       1  UNL1        0.0000
     27 H           3.7643    2.0141   -1.2889 H       1  UNL1        0.0000
     28 H           1.7870   -1.9539    1.0274 H       1  UNL1        0.0000
     29 H          -0.7732   -2.3239    1.4692 H       1  UNL1        0.0000
     30 H          -2.8915    2.0770   -0.8204 H       1  UNL1        0.0000
     31 H          -6.7128   -0.5539    0.9639 H       1  UNL1        0.0000
     32 H          -6.0231   -2.8882    2.2137 H       1  UNL1        0.0000
     33 H          -3.5123   -3.0585    2.1039 H       1  UNL1        0.0000
     34 H          -0.8353    2.9901   -1.4846 H       1  UNL1        0.0000
     35 H           4.3515   -0.9871   -2.0022 H       1  UNL1        0.0000
     36 H           6.9823   -1.2614    1.2260 H       1  UNL1        0.0000
@<TRIPOS>BOND
     1     1     2    1
     2     2     3    2
     3     3     4   ar
     4     4     5   ar
     5     5     6   ar
     6     6     7   ar
     7     7     8   ar
     8     8     9   ar
     9     9    10   ar
    10    10    11   ar
    11    11    12   ar
    12    12    13   ar
    13    13    14   ar
    14    14    15   ar
    15    15    16   ar
    16     9    17   ar
    17    17    18   ar
    18    18    19    2
    19     4    20    1
    20    20    21   ar
    21    21    22   ar
    22    22    23   ar
    23    23    24   ar
    24    19     1    1
    25    24    20   ar
    26    18     3   ar
    27    17     6   ar
    28    16     8   ar
    29    16    12   ar
    30     1    25    1
    31     1    26    1
    32     2    27    1
    33     5    28    1
    34     7    29    1
    35    10    30    1
    36    13    31    1
    37    14    32    1
    38    15    33    1
    39    19    34    1
    40    21    35    1
    41    23    36    1
