@<TRIPOS>MOLECULE
*****
 33 37 0 0 0
SMALL
GASTEIGER

@<TRIPOS>ATOM
      1 C           1.1075    0.8213    0.2302 C.3     1  UNL1        0.0036
      2 C           2.3144   -0.1130    0.1625 C.2     1  UNL1       -0.0191
      3 C           1.9216   -1.3968    0.0182 C.2     1  UNL1       -0.0488
      4 C           0.4679   -1.4494   -0.0237 C.ar    1  UNL1       -0.0177
      5 C          -0.3677   -2.5468   -0.1596 C.ar    1  UNL1       -0.0535
      6 C          -1.7593   -2.3508   -0.1739 C.ar    1  UNL1       -0.0483
      7 C          -2.2836   -1.0418   -0.0499 C.ar    1  UNL1        0.0465
      8 C          -3.5781   -0.4613   -0.0216 C.ar    1  UNL1        0.1166
      9 N          -4.8077   -1.0343   -0.1125 N.ar    1  UNL1       -0.2512
     10 C          -5.8342   -0.1542   -0.0460 C.ar    1  UNL1        0.0285
     11 C          -5.7168    1.2261    0.1015 C.ar    1  UNL1       -0.0401
     12 C          -4.4510    1.8039    0.1937 C.ar    1  UNL1       -0.0158
     13 C          -3.3916    0.9092    0.1266 C.ar    1  UNL1        0.1544
     14 O          -2.0659    1.2112    0.1915 O.2     1  UNL1       -0.4529
     15 C          -1.3978    0.0289    0.0844 C.ar    1  UNL1        0.1418
     16 C          -0.0261   -0.1462    0.1004 C.ar    1  UNL1        0.0070
     17 C           3.6960    0.2124    0.2311 C.ar    1  UNL1        0.0428
     18 C           4.8707   -0.5176    0.1834 C.ar    1  UNL1       -0.0367
     19 C           5.9554    0.3846    0.3054 C.ar    1  UNL1       -0.0438
     20 C           5.4225    1.6461    0.4251 C.ar    1  UNL1        0.0022
     21 N           4.0567    1.5331    0.3792 N.ar    1  UNL1       -0.3609
     22 H           1.0662    1.3457    1.1897 H       1  UNL1        0.0363
     23 H           1.1111    1.5333   -0.6008 H       1  UNL1        0.0363
     24 H           2.5442   -2.2743   -0.0581 H       1  UNL1        0.0627
     25 H           0.0403   -3.5488   -0.2544 H       1  UNL1        0.0624
     26 H          -2.4347   -3.1959   -0.2793 H       1  UNL1        0.0625
     27 H          -6.8199   -0.6099   -0.1185 H       1  UNL1        0.0830
     28 H          -6.6072    1.8458    0.1440 H       1  UNL1        0.0634
     29 H          -4.2972    2.8685    0.3091 H       1  UNL1        0.0655
     30 H           4.9456   -1.5913    0.0721 H       1  UNL1        0.0639
     31 H           7.0090    0.1377    0.3055 H       1  UNL1        0.0633
     32 H           5.8939    2.6129    0.5387 H       1  UNL1        0.0807
     33 H           3.4158    2.3118    0.4454 H       1  UNL1        0.1653
@<TRIPOS>BOND
     1     1     2    1
     2     2     3    2
     3     3     4    1
     4     4     5   ar
     5     5     6   ar
     6     6     7   ar
     7     7     8   ar
     8     8     9   ar
     9     9    10   ar
    10    10    11   ar
    11    11    12   ar
    12    12    13   ar
    13    13    14   ar
    14    14    15   ar
    15    15    16   ar
    16     2    17    1
    17    17    18   ar
    18    18    19   ar
    19    19    20   ar
    20    20    21   ar
    21    16     1    1
    22    21    17   ar
    23    16     4   ar
    24    15     7   ar
    25    13     8   ar
    26     1    22    1
    27     1    23    1
    28     3    24    1
    29     5    25    1
    30     6    26    1
    31    10    27    1
    32    11    28    1
    33    12    29    1
    34    18    30    1
    35    19    31    1
    36    20    32    1
    37    21    33    1
