@<TRIPOS>MOLECULE
*****
 36 41 0 0 0
SMALL
GASTEIGER

@<TRIPOS>ATOM
      1 C          -0.6387    0.1110    0.2449 C.3     1  UNL1       -0.0001
      2 C          -1.6124   -0.3607   -0.8353 C.2     1  UNL1       -0.0266
      3 C          -0.9405   -0.7415   -1.9427 C.2     1  UNL1       -0.0497
      4 C           0.4845   -0.5672   -1.7152 C.ar    1  UNL1       -0.0206
      5 C           1.5431   -0.8265   -2.5661 C.ar    1  UNL1       -0.0537
      6 C           2.8393   -0.5726   -2.1084 C.ar    1  UNL1       -0.0523
      7 C           3.0639   -0.0604   -0.8008 C.ar    1  UNL1       -0.0004
      8 C           4.3666    0.2126   -0.2941 C.ar    1  UNL1        0.0452
      9 S           5.9137    0.0219   -1.0433 S.2     1  UNL1       -0.0945
     10 C           6.7439    0.5967    0.3314 C.ar    1  UNL1       -0.0217
     11 C           5.8822    0.9314    1.3484 C.ar    1  UNL1       -0.0287
     12 C           4.5158    0.7157    1.0021 C.ar    1  UNL1        0.0786
     13 N           3.4694    0.9680    1.8327 N.ar    1  UNL1       -0.2538
     14 C           2.2472    0.7019    1.3310 C.ar    1  UNL1        0.0363
     15 C           1.9760    0.2001    0.0581 C.ar    1  UNL1        0.0054
     16 C           0.6909   -0.0636   -0.4270 C.ar    1  UNL1       -0.0267
     17 C          -3.0445   -0.4060   -0.7231 C.ar    1  UNL1        0.0431
     18 S          -4.0701   -0.9633   -2.0142 S.2     1  UNL1       -0.0926
     19 C          -5.5123   -0.7144   -1.1312 C.ar    1  UNL1        0.0038
     20 C          -5.2505   -0.2207    0.1169 C.ar    1  UNL1        0.0968
     21 N          -6.2320    0.0633    1.0174 N.ar    1  UNL1       -0.2514
     22 C          -5.6992    0.5390    2.1749 C.ar    1  UNL1        0.0464
     23 C          -4.3325    0.7164    2.4183 C.ar    1  UNL1        0.0464
     24 N          -3.3343    0.4400    1.5349 N.ar    1  UNL1       -0.2508
     25 C          -3.8375   -0.0418    0.3569 C.ar    1  UNL1        0.1036
     26 H          -0.7067   -0.5210    1.1361 H       1  UNL1        0.0362
     27 H          -0.8101    1.1630    0.4940 H       1  UNL1        0.0362
     28 H          -1.3327   -1.1203   -2.8733 H       1  UNL1        0.0627
     29 H           1.3786   -1.2173   -3.5651 H       1  UNL1        0.0624
     30 H           3.6739   -0.7756   -2.7756 H       1  UNL1        0.0624
     31 H           7.8233    0.6624    0.3302 H       1  UNL1        0.0694
     32 H           6.2043    1.3164    2.3069 H       1  UNL1        0.0644
     33 H           1.4372    0.9167    2.0250 H       1  UNL1        0.0836
     34 H          -6.4759   -0.9396   -1.5644 H       1  UNL1        0.0715
     35 H          -6.4263    0.7879    2.9429 H       1  UNL1        0.0845
     36 H          -3.9977    1.1037    3.3768 H       1  UNL1        0.0845
@<TRIPOS>BOND
     1     1     2    1
     2     2     3    2
     3     3     4    1
     4     4     5   ar
     5     5     6   ar
     6     6     7   ar
     7     7     8   ar
     8     8     9   ar
     9     9    10   ar
    10    10    11   ar
    11    11    12   ar
    12    12    13   ar
    13    13    14   ar
    14    14    15   ar
    15    15    16   ar
    16     2    17    1
    17    17    18   ar
    18    18    19   ar
    19    19    20   ar
    20    20    21   ar
    21    21    22   ar
    22    22    23   ar
    23    23    24   ar
    24    24    25   ar
    25    16     1    1
    26    25    17   ar
    27    16     4   ar
    28    25    20   ar
    29    15     7   ar
    30    12     8   ar
    31     1    26    1
    32     1    27    1
    33     3    28    1
    34     5    29    1
    35     6    30    1
    36    10    31    1
    37    11    32    1
    38    14    33    1
    39    19    34    1
    40    22    35    1
    41    23    36    1
