@<TRIPOS>MOLECULE
*****
 36 40 0 0 0
SMALL
GASTEIGER

@<TRIPOS>ATOM
      1 C           1.2929   -0.6035    0.1651 C.3     1  UNL1        0.0000
      2 C           2.5609    0.1873   -0.1564 C.2     1  UNL1        0.0000
      3 C           2.2536    1.4460   -0.5309 C.2     1  UNL1        0.0000
      4 C           0.8081    1.6054   -0.4953 C.ar    1  UNL1        0.0000
      5 C           0.0473    2.7177   -0.7973 C.ar    1  UNL1        0.0000
      6 C          -1.3426    2.6189   -0.6844 C.ar    1  UNL1        0.0000
      7 C          -1.9669    1.4200   -0.2737 C.ar    1  UNL1        0.0000
      8 C          -3.3666    1.3434   -0.1672 C.ar    1  UNL1        0.0000
      9 C          -3.9678    0.1572    0.2382 C.ar    1  UNL1        0.0000
     10 C          -5.4192   -0.0418    0.3859 C.2     1  UNL1        0.0000
     11 C          -5.7614   -1.2781    0.7917 C.2     1  UNL1        0.0000
     12 SI         -4.2787   -2.4020    1.0548 Si      1  UNL1        0.0000
     13 C          -3.1772   -0.9709    0.5434 C.ar    1  UNL1        0.0000
     14 C          -1.7905   -0.9192    0.4455 C.ar    1  UNL1        0.0000
     15 C          -1.1725    0.2783    0.0355 C.ar    1  UNL1        0.0000
     16 C           0.2138    0.4071   -0.0865 C.ar    1  UNL1        0.0000
     17 C           3.8927   -0.3083   -0.0806 C.ar    1  UNL1        0.0000
     18 C           4.3899   -1.5499    0.2760 C.ar    1  UNL1        0.0000
     19 C           5.8013   -1.5058    0.1796 C.ar    1  UNL1        0.0000
     20 C           6.1390   -0.2392   -0.2337 C.ar    1  UNL1        0.0000
     21 N           4.9800    0.4780   -0.3885 N.ar    1  UNL1        0.0000
     22 H           1.1914   -1.4620   -0.5066 H       1  UNL1        0.0000
     23 H           1.2928   -0.9263    1.2112 H       1  UNL1        0.0000
     24 H           2.9097    2.2493   -0.8203 H       1  UNL1        0.0000
     25 H           0.5087    3.6468   -1.1143 H       1  UNL1        0.0000
     26 H          -1.9466    3.4928   -0.9214 H       1  UNL1        0.0000
     27 H          -3.9836    2.2070   -0.4001 H       1  UNL1        0.0000
     28 H          -6.1229    0.7533    0.1795 H       1  UNL1        0.0000
     29 H          -6.7639   -1.6387    0.9633 H       1  UNL1        0.0000
     30 H          -4.2508   -3.5278    0.0878 H       1  UNL1        0.0000
     31 H          -4.1097   -2.7819    2.4797 H       1  UNL1        0.0000
     32 H          -1.1944   -1.7960    0.6838 H       1  UNL1        0.0000
     33 H           3.7967   -2.4040    0.5761 H       1  UNL1        0.0000
     34 H           6.4934   -2.3110    0.3891 H       1  UNL1        0.0000
     35 H           7.1003    0.2156   -0.4313 H       1  UNL1        0.0000
     36 H           4.9426    1.4423   -0.6857 H       1  UNL1        0.0000
@<TRIPOS>BOND
     1     1     2    1
     2     2     3    2
     3     3     4    1
     4     4     5   ar
     5     5     6   ar
     6     6     7   ar
     7     7     8   ar
     8     8     9   ar
     9     9    10    1
    10    10    11    2
    11    11    12    1
    12    12    13    1
    13    13    14   ar
    14    14    15   ar
    15    15    16   ar
    16     2    17    1
    17    17    18   ar
    18    18    19   ar
    19    19    20   ar
    20    20    21   ar
    21    16     1    1
    22    21    17   ar
    23    16     4   ar
    24    15     7   ar
    25    13     9   ar
    26     1    22    1
    27     1    23    1
    28     3    24    1
    29     5    25    1
    30     6    26    1
    31     8    27    1
    32    10    28    1
    33    11    29    1
    34    12    30    1
    35    12    31    1
    36    14    32    1
    37    18    33    1
    38    19    34    1
    39    20    35    1
    40    21    36    1
