@<TRIPOS>MOLECULE
*****
 43 50 0 0 0
SMALL
GASTEIGER

@<TRIPOS>ATOM
      1 C           1.4986   -0.1010    0.2271 C.3     1  UNL1       -0.0001
      2 C           2.4953   -0.7252   -0.7472 C.2     1  UNL1       -0.0281
      3 C           1.8575   -1.1877   -1.8422 C.2     1  UNL1       -0.0483
      4 C           0.4402   -0.9205   -1.6939 C.ar    1  UNL1       -0.0025
      5 C          -0.6178   -1.1903   -2.5187 C.ar    1  UNL1        0.0357
      6 N          -1.8936   -0.8574   -2.2008 N.ar    1  UNL1       -0.2537
      7 C          -2.1937   -0.2321   -1.0354 C.ar    1  UNL1        0.0818
      8 C          -1.1169    0.0731   -0.1349 C.ar    1  UNL1        0.0158
      9 C           0.1972   -0.2827   -0.4880 C.ar    1  UNL1       -0.0246
     10 C          -1.5605    0.7230    1.0408 C.ar    1  UNL1        0.0299
     11 C          -0.8178    1.1582    2.1097 C.ar    1  UNL1        0.1000
     12 O          -1.6334    1.7357    3.0401 O.2     1  UNL1       -0.4698
     13 C          -2.9089    1.6688    2.5610 C.ar    1  UNL1        0.1000
     14 C          -2.9136    1.0539    1.3337 C.ar    1  UNL1        0.0283
     15 C          -4.0193    0.7890    0.5057 C.ar    1  UNL1       -0.0029
     16 C          -5.3660    1.1388    0.8382 C.ar    1  UNL1       -0.0511
     17 C          -6.4391    0.8599   -0.0087 C.ar    1  UNL1       -0.0329
     18 C          -6.1225    0.2090   -1.2208 C.ar    1  UNL1        0.1006
     19 N          -7.0299   -0.1330   -2.1487 N.ar    1  UNL1       -0.1908
     20 S          -6.1947   -0.8625   -3.3769 S.2     1  UNL1        0.1165
     21 N          -4.6557   -0.7774   -2.7901 N.ar    1  UNL1       -0.1901
     22 C          -4.6952   -0.1698   -1.5891 C.ar    1  UNL1        0.1096
     23 C          -3.5783    0.1185   -0.7115 C.ar    1  UNL1        0.0369
     24 C           3.9083   -0.8255   -0.5637 C.ar    1  UNL1        0.0249
     25 S           5.0010   -1.5589   -1.7295 S.2     1  UNL1       -0.0943
     26 C           6.4223   -1.2770   -0.7819 C.ar    1  UNL1        0.0002
     27 C           6.0426   -0.6574    0.3504 C.ar    1  UNL1        0.0542
     28 N           6.8534   -0.2557    1.3711 N.ar    1  UNL1       -0.3602
     29 C           5.9274    0.3087    2.2450 C.ar    1  UNL1        0.0028
     30 C           4.6150    0.2297    1.7316 C.ar    1  UNL1       -0.0356
     31 C           4.6928   -0.4155    0.4664 C.ar    1  UNL1        0.0141
     32 H           1.5028   -0.6421    1.1784 H       1  UNL1        0.0362
     33 H           1.7208    0.9604    0.3748 H       1  UNL1        0.0362
     34 H           2.2734   -1.6785   -2.7081 H       1  UNL1        0.0627
     35 H          -0.4934   -1.6869   -3.4751 H       1  UNL1        0.0836
     36 H           0.2289    1.1490    2.3751 H       1  UNL1        0.1036
     37 H          -3.6627    2.0955    3.2075 H       1  UNL1        0.1036
     38 H          -5.5819    1.6406    1.7803 H       1  UNL1        0.0624
     39 H          -7.4597    1.1240    0.2413 H       1  UNL1        0.0640
     40 H           7.4086   -1.5749   -1.1081 H       1  UNL1        0.0714
     41 H           7.8585   -0.3547    1.4464 H       1  UNL1        0.1653
     42 H           6.2776    0.7295    3.1791 H       1  UNL1        0.0807
     43 H           3.7319    0.6013    2.2329 H       1  UNL1        0.0639
@<TRIPOS>BOND
     1     1     2    1
     2     2     3    2
     3     3     4    1
     4     4     5   ar
     5     5     6   ar
     6     6     7   ar
     7     7     8   ar
     8     8     9   ar
     9     8    10   ar
    10    10    11   ar
    11    11    12   ar
    12    12    13   ar
    13    13    14   ar
    14    14    15   ar
    15    15    16   ar
    16    16    17   ar
    17    17    18   ar
    18    18    19   ar
    19    19    20   ar
    20    20    21   ar
    21    21    22   ar
    22    22    23   ar
    23     2    24    1
    24    24    25   ar
    25    25    26   ar
    26    26    27   ar
    27    27    28   ar
    28    28    29   ar
    29    29    30   ar
    30    30    31   ar
    31     9     1    1
    32    14    10   ar
    33    23    15   ar
    34    31    24   ar
    35     9     4   ar
    36    22    18   ar
    37    31    27   ar
    38    23     7   ar
    39     1    32    1
    40     1    33    1
    41     3    34    1
    42     5    35    1
    43    11    36    1
    44    13    37    1
    45    16    38    1
    46    17    39    1
    47    26    40    1
    48    28    41    1
    49    29    42    1
    50    30    43    1
