@<TRIPOS>MOLECULE
*****
 41 48 0 0 0
SMALL
GASTEIGER

@<TRIPOS>ATOM
      1 C           1.3117   -0.5352   -0.8708 C.3     1  UNL1        0.0000
      2 C           2.4116    0.2838   -0.2017 C.2     1  UNL1       -0.0267
      3 C           1.8925    1.2018    0.6386 C.2     1  UNL1       -0.0482
      4 C           0.4504    1.0621    0.6222 C.ar    1  UNL1       -0.0025
      5 C          -0.5305    1.7381    1.2928 C.ar    1  UNL1        0.0357
      6 N          -1.8455    1.4473    1.1362 N.ar    1  UNL1       -0.2536
      7 C          -2.2581    0.4665    0.2946 C.ar    1  UNL1        0.0833
      8 C          -1.2784   -0.2683   -0.4328 C.ar    1  UNL1        0.0333
      9 C           0.0773    0.0502   -0.2501 C.ar    1  UNL1       -0.0231
     10 C          -1.7336   -1.3004   -1.3186 C.ar    1  UNL1        0.1099
     11 N          -0.9630   -2.0961   -2.0827 N.ar    1  UNL1       -0.1901
     12 S          -1.9738   -3.1077   -2.9128 S.2     1  UNL1        0.1165
     13 N          -3.4388   -2.5921   -2.3438 N.ar    1  UNL1       -0.1901
     14 C          -3.1976   -1.5947   -1.4729 C.ar    1  UNL1        0.1083
     15 C          -4.1793   -0.8565   -0.7420 C.ar    1  UNL1        0.0145
     16 C          -5.5644   -1.1664   -0.9158 C.ar    1  UNL1       -0.0497
     17 C          -6.5864   -0.4948   -0.2406 C.ar    1  UNL1       -0.0328
     18 C          -6.1755    0.5262    0.6406 C.ar    1  UNL1        0.1006
     19 N          -7.0141    1.2754    1.3723 N.ar    1  UNL1       -0.1908
     20 S          -6.0735    2.3252    2.2392 S.2     1  UNL1        0.1165
     21 N          -4.5697    1.8762    1.7285 N.ar    1  UNL1       -0.1901
     22 C          -4.7097    0.8732    0.8417 C.ar    1  UNL1        0.1097
     23 C          -3.6571    0.1689    0.1341 C.ar    1  UNL1        0.0384
     24 C           3.8077    0.1913   -0.4197 C.ar    1  UNL1        0.0395
     25 S           4.5156    0.0822   -2.0048 S.2     1  UNL1       -0.0943
     26 C           6.1436    0.0267   -1.3998 C.ar    1  UNL1       -0.0145
     27 C           6.0769    0.0594   -0.0543 C.ar    1  UNL1        0.0073
     28 C           6.9113    0.0259    1.0887 C.ar    1  UNL1       -0.0361
     29 C           6.0663    0.0778    2.2175 C.ar    1  UNL1        0.0028
     30 N           4.7232    0.1432    1.8516 N.ar    1  UNL1       -0.3598
     31 C           4.8123    0.1403    0.4871 C.ar    1  UNL1        0.0611
     32 H           1.4199   -1.5948   -0.6189 H       1  UNL1        0.0362
     33 H           1.3168   -0.3838   -1.9546 H       1  UNL1        0.0362
     34 H           2.4176    1.9464    1.2167 H       1  UNL1        0.0627
     35 H          -0.3118    2.5429    1.9864 H       1  UNL1        0.0836
     36 H          -5.8525   -1.9628   -1.6054 H       1  UNL1        0.0625
     37 H          -7.6327   -0.7389   -0.3811 H       1  UNL1        0.0640
     38 H           6.9937   -0.0390   -2.0628 H       1  UNL1        0.0700
     39 H           7.9910   -0.0372    1.1183 H       1  UNL1        0.0639
     40 H           6.3217    0.0661    3.2695 H       1  UNL1        0.0807
     41 H           3.8848    0.1719    2.4185 H       1  UNL1        0.1654
@<TRIPOS>BOND
     1     1     2    1
     2     2     3    2
     3     3     4    1
     4     4     5   ar
     5     5     6   ar
     6     6     7   ar
     7     7     8   ar
     8     8     9   ar
     9     8    10   ar
    10    10    11   ar
    11    11    12   ar
    12    12    13   ar
    13    13    14   ar
    14    14    15   ar
    15    15    16   ar
    16    16    17   ar
    17    17    18   ar
    18    18    19   ar
    19    19    20   ar
    20    20    21   ar
    21    21    22   ar
    22    22    23   ar
    23     2    24    1
    24    24    25   ar
    25    25    26   ar
    26    26    27   ar
    27    27    28   ar
    28    28    29   ar
    29    29    30   ar
    30    30    31   ar
    31     9     1    1
    32    14    10   ar
    33    23    15   ar
    34    31    24   ar
    35     9     4   ar
    36    22    18   ar
    37    31    27   ar
    38    23     7   ar
    39     1    32    1
    40     1    33    1
    41     3    34    1
    42     5    35    1
    43    16    36    1
    44    17    37    1
    45    26    38    1
    46    28    39    1
    47    29    40    1
    48    30    41    1
