@<TRIPOS>MOLECULE
*****
 46 52 0 0 0
SMALL
GASTEIGER

@<TRIPOS>ATOM
      1 C           1.5948   -1.5777   -0.3508 C.3     1  UNL1        0.0000
      2 C           2.7491   -0.6035   -0.5664 C.2     1  UNL1        0.0000
      3 C           2.3113    0.6714   -0.5599 C.2     1  UNL1        0.0000
      4 C           0.8811    0.6570   -0.3249 C.ar    1  UNL1        0.0000
      5 C          -0.0266    1.6701   -0.2207 C.ar    1  UNL1        0.0000
      6 N          -1.3409    1.4372    0.0089 N.ar    1  UNL1        0.0000
      7 C          -1.8283    0.1710    0.1452 C.ar    1  UNL1        0.0000
      8 C          -0.9217   -0.9218    0.0420 C.ar    1  UNL1        0.0000
      9 C          -1.3608   -2.2390    0.1710 C.ar    1  UNL1        0.0000
     10 C          -2.6985   -2.4999    0.4046 C.ar    1  UNL1        0.0000
     11 C          -3.6193   -1.4579    0.5134 C.ar    1  UNL1        0.0000
     12 C          -4.9485   -1.8104    0.7500 C.ar    1  UNL1        0.0000
     13 C          -5.9340   -0.8433    0.8726 C.ar    1  UNL1        0.0000
     14 C          -5.6201    0.5073    0.7621 C.ar    1  UNL1        0.0000
     15 C          -6.6624    1.4423    0.8954 C.ar    1  UNL1        0.0000
     16 C          -6.4236    2.8073    0.7964 C.ar    1  UNL1        0.0000
     17 C          -5.1347    3.2487    0.5623 C.ar    1  UNL1        0.0000
     18 C          -4.0926    2.3226    0.4287 C.ar    1  UNL1        0.0000
     19 C          -4.2777    0.9157    0.5207 C.ar    1  UNL1        0.0000
     20 C          -3.2230   -0.0924    0.3886 C.ar    1  UNL1        0.0000
     21 C           0.4275   -0.6465   -0.1932 C.ar    1  UNL1        0.0000
     22 C           4.1237   -0.9112   -0.7798 C.ar    1  UNL1        0.0000
     23 S           4.5500   -2.2790   -1.7743 S.2     1  UNL1        0.0000
     24 C           6.2449   -2.0286   -1.5902 C.ar    1  UNL1        0.0000
     25 C           6.4874   -0.9550   -0.7803 C.ar    1  UNL1        0.0000
     26 C           7.7256   -0.3948   -0.3319 C.2     1  UNL1        0.0000
     27 C           7.6029    0.6664    0.4945 C.2     1  UNL1        0.0000
     28 SI          5.7664    1.0891    0.8103 Si      1  UNL1        0.0000
     29 C           5.2855   -0.3409   -0.3315 C.ar    1  UNL1        0.0000
     30 H           1.4564   -2.2277   -1.2204 H       1  UNL1        0.0000
     31 H           1.7533   -2.1686    0.5569 H       1  UNL1        0.0000
     32 H           2.8782    1.5744   -0.7196 H       1  UNL1        0.0000
     33 H           0.2545    2.7129   -0.3148 H       1  UNL1        0.0000
     34 H          -0.6723   -3.0764    0.0918 H       1  UNL1        0.0000
     35 H          -3.0144   -3.5374    0.5012 H       1  UNL1        0.0000
     36 H          -5.2411   -2.8549    0.8435 H       1  UNL1        0.0000
     37 H          -6.9573   -1.1640    1.0568 H       1  UNL1        0.0000
     38 H          -7.6821    1.1094    1.0797 H       1  UNL1        0.0000
     39 H          -7.2384    3.5173    0.9013 H       1  UNL1        0.0000
     40 H          -4.9244    4.3117    0.4808 H       1  UNL1        0.0000
     41 H          -3.1101    2.7449    0.2461 H       1  UNL1        0.0000
     42 H           6.9496   -2.6882   -2.0763 H       1  UNL1        0.0000
     43 H           8.6833   -0.8003   -0.6374 H       1  UNL1        0.0000
     44 H           8.3920    1.2413    0.9514 H       1  UNL1        0.0000
     45 H           5.4125    0.8736    2.2353 H       1  UNL1        0.0000
     46 H           5.4230    2.4276    0.2663 H       1  UNL1        0.0000
@<TRIPOS>BOND
     1     1     2    1
     2     2     3    2
     3     3     4    1
     4     4     5   ar
     5     5     6   ar
     6     6     7   ar
     7     7     8   ar
     8     8     9   ar
     9     9    10   ar
    10    10    11   ar
    11    11    12   ar
    12    12    13   ar
    13    13    14   ar
    14    14    15   ar
    15    15    16   ar
    16    16    17   ar
    17    17    18   ar
    18    18    19   ar
    19    19    20   ar
    20     8    21   ar
    21     2    22    1
    22    22    23   ar
    23    23    24   ar
    24    24    25   ar
    25    25    26    1
    26    26    27    2
    27    27    28    1
    28    28    29    1
    29    21     1    1
    30    29    22   ar
    31    21     4   ar
    32    29    25   ar
    33    20     7   ar
    34    20    11   ar
    35    19    14   ar
    36     1    30    1
    37     1    31    1
    38     3    32    1
    39     5    33    1
    40     9    34    1
    41    10    35    1
    42    12    36    1
    43    13    37    1
    44    15    38    1
    45    16    39    1
    46    17    40    1
    47    18    41    1
    48    24    42    1
    49    26    43    1
    50    27    44    1
    51    28    45    1
    52    28    46    1
