@<TRIPOS>MOLECULE
*****
 44 50 0 0 0
SMALL
GASTEIGER

@<TRIPOS>ATOM
      1 C          -1.5113   -0.5460   -0.2361 C.3     1  UNL1        0.0009
      2 C          -2.4793    0.6256   -0.2016 C.2     1  UNL1       -0.0345
      3 C          -1.8210    1.7885   -0.0072 C.2     1  UNL1       -0.0487
      4 C          -0.4031    1.5032    0.0972 C.ar    1  UNL1       -0.0011
      5 C           0.6784    2.3174    0.2913 C.ar    1  UNL1        0.0358
      6 N           1.9353    1.8248    0.3557 N.ar    1  UNL1       -0.2522
      7 C           2.1340    0.4740    0.2232 C.ar    1  UNL1        0.0978
      8 C           1.0632   -0.4263    0.0206 C.ar    1  UNL1        0.0938
      9 N           1.1920   -1.7619   -0.1165 N.ar    1  UNL1       -0.2525
     10 C           2.4377   -2.2833   -0.0568 C.ar    1  UNL1        0.0361
     11 C           3.5994   -1.5511    0.1353 C.ar    1  UNL1        0.0029
     12 C           4.8861   -2.2168    0.1827 C.ar    1  UNL1       -0.0519
     13 C           6.1264   -1.5699    0.3727 C.ar    1  UNL1       -0.0520
     14 C           5.9372   -0.2057    0.5078 C.ar    1  UNL1        0.0001
     15 C           6.9352    0.7131    0.7054 C.ar    1  UNL1        0.0094
     16 N           6.3287    1.9472    0.7864 N.ar    1  UNL1       -0.3659
     17 C           4.9643    1.8164    0.6424 C.ar    1  UNL1        0.0101
     18 C           4.6860    0.4818    0.4662 C.ar    1  UNL1        0.0092
     19 C           3.4167   -0.1344    0.2767 C.ar    1  UNL1        0.0201
     20 C          -0.1925    0.1363   -0.0359 C.ar    1  UNL1       -0.0070
     21 C          -3.9308    0.5026   -0.3615 C.ar    1  UNL1       -0.0108
     22 C          -4.8359    1.6077   -0.3607 C.ar    1  UNL1       -0.0536
     23 C          -6.2665    1.5193   -0.5167 C.ar    1  UNL1       -0.0605
     24 C          -6.9681    0.3123   -0.6932 C.ar    1  UNL1       -0.0510
     25 C          -6.0841   -0.7547   -0.6936 C.ar    1  UNL1        0.0204
     26 C          -6.4248   -2.0712   -0.8427 C.ar    1  UNL1        0.0994
     27 O          -5.2974   -2.8363   -0.7919 O.2     1  UNL1       -0.4698
     28 C          -4.2341   -1.9937   -0.6088 C.ar    1  UNL1        0.1000
     29 C          -4.6578   -0.6879   -0.5400 C.ar    1  UNL1        0.0272
     30 H          -1.5298   -1.0510   -1.2069 H       1  UNL1        0.0362
     31 H          -1.6985   -1.2426    0.5870 H       1  UNL1        0.0362
     32 H          -2.2220    2.7862    0.0647 H       1  UNL1        0.0627
     33 H           0.5849    3.3917    0.4025 H       1  UNL1        0.0836
     34 H           2.4683   -3.3644   -0.1750 H       1  UNL1        0.0836
     35 H           4.9111   -3.3020    0.0633 H       1  UNL1        0.0624
     36 H           7.0746   -2.0863    0.4047 H       1  UNL1        0.0624
     37 H           8.0085    0.6177    0.7965 H       1  UNL1        0.0813
     38 H           6.8114    2.8244    0.9307 H       1  UNL1        0.1648
     39 H           4.3275    2.6900    0.6800 H       1  UNL1        0.0813
     40 H          -4.4396    2.6155   -0.2348 H       1  UNL1        0.0624
     41 H          -6.8363    2.4494   -0.4963 H       1  UNL1        0.0618
     42 H          -8.0405    0.2526   -0.8097 H       1  UNL1        0.0625
     43 H          -7.3503   -2.6105   -0.9852 H       1  UNL1        0.1035
     44 H          -3.2836   -2.5016   -0.5543 H       1  UNL1        0.1036
@<TRIPOS>BOND
     1     1     2    1
     2     2     3    2
     3     3     4    1
     4     4     5   ar
     5     5     6   ar
     6     6     7   ar
     7     7     8   ar
     8     8     9   ar
     9     9    10   ar
    10    10    11   ar
    11    11    12   ar
    12    12    13   ar
    13    13    14   ar
    14    14    15   ar
    15    15    16   ar
    16    16    17   ar
    17    17    18   ar
    18    18    19   ar
    19     8    20   ar
    20     2    21    1
    21    21    22   ar
    22    22    23   ar
    23    23    24   ar
    24    24    25   ar
    25    25    26   ar
    26    26    27   ar
    27    27    28   ar
    28    28    29   ar
    29    20     1    1
    30    29    21   ar
    31    20     4   ar
    32    29    25   ar
    33    19     7   ar
    34    19    11   ar
    35    18    14   ar
    36     1    30    1
    37     1    31    1
    38     3    32    1
    39     5    33    1
    40    10    34    1
    41    12    35    1
    42    13    36    1
    43    15    37    1
    44    16    38    1
    45    17    39    1
    46    22    40    1
    47    23    41    1
    48    24    42    1
    49    26    43    1
    50    28    44    1
