@<TRIPOS>MOLECULE
*****
 43 49 0 0 0
SMALL
GASTEIGER

@<TRIPOS>ATOM
      1 C           1.2937    0.2602   -0.7230 C.3     1  UNL1        0.0009
      2 C           2.3562   -0.3601    0.1701 C.2     1  UNL1       -0.0346
      3 C           1.7829   -0.9633    1.2357 C.2     1  UNL1       -0.0487
      4 C           0.3448   -0.8018    1.1486 C.ar    1  UNL1       -0.0011
      5 C          -0.6715   -1.2193    1.9643 C.ar    1  UNL1        0.0358
      6 N          -1.9659   -0.9496    1.6812 N.ar    1  UNL1       -0.2522
      7 C          -2.2632   -0.2402    0.5482 C.ar    1  UNL1        0.0978
      8 C          -1.2685    0.2237   -0.3411 C.ar    1  UNL1        0.0938
      9 N          -1.5114    0.9252   -1.4684 N.ar    1  UNL1       -0.2525
     10 C          -2.7988    1.2071   -1.7729 C.ar    1  UNL1        0.0361
     11 C          -3.8968    0.8299   -1.0136 C.ar    1  UNL1        0.0030
     12 C          -5.2431    1.1819   -1.4266 C.ar    1  UNL1       -0.0518
     13 C          -6.4230    0.8455   -0.7245 C.ar    1  UNL1       -0.0504
     14 C          -6.1055    0.1298    0.4168 C.ar    1  UNL1        0.0205
     15 C          -6.9884   -0.3628    1.3396 C.ar    1  UNL1        0.0994
     16 O          -6.2992   -1.0124    2.3254 O.2     1  UNL1       -0.4698
     17 C          -4.9674   -0.9283    2.0208 C.ar    1  UNL1        0.1000
     18 C          -4.7960   -0.2320    0.8505 C.ar    1  UNL1        0.0297
     19 C          -3.5896    0.0868    0.1741 C.ar    1  UNL1        0.0217
     20 C           0.0291   -0.0832    0.0030 C.ar    1  UNL1       -0.0070
     21 C           3.8069   -0.3130   -0.0836 C.ar    1  UNL1       -0.0133
     22 C           4.7589   -0.9070    0.8016 C.ar    1  UNL1       -0.0537
     23 C           6.1801   -0.9041    0.6258 C.ar    1  UNL1       -0.0606
     24 C           6.8271   -0.3031   -0.4629 C.ar    1  UNL1       -0.0535
     25 C           5.9200    0.2839   -1.3406 C.ar    1  UNL1       -0.0103
     26 C           6.3577    0.9262   -2.4728 C.ar    1  UNL1       -0.0166
     27 S           5.0473    1.5555   -3.3727 S.2     1  UNL1       -0.1039
     28 C           3.8958    0.9627   -2.2380 C.ar    1  UNL1       -0.0160
     29 C           4.4709    0.2927   -1.1811 C.ar    1  UNL1       -0.0035
     30 H           1.4034    1.3476   -0.7785 H       1  UNL1        0.0362
     31 H           1.2851   -0.2033   -1.7144 H       1  UNL1        0.0362
     32 H           2.2541   -1.4913    2.0484 H       1  UNL1        0.0627
     33 H          -0.4928   -1.7835    2.8728 H       1  UNL1        0.0836
     34 H          -2.9199    1.7742   -2.6935 H       1  UNL1        0.0836
     35 H          -5.3656    1.7514   -2.3510 H       1  UNL1        0.0624
     36 H          -7.4159    1.1187   -1.0517 H       1  UNL1        0.0625
     37 H          -8.0630   -0.3508    1.4536 H       1  UNL1        0.1035
     38 H          -4.3022   -1.4062    2.7264 H       1  UNL1        0.1036
     39 H           4.4063   -1.4147    1.6991 H       1  UNL1        0.0624
     40 H           6.7896   -1.3979    1.3833 H       1  UNL1        0.0618
     41 H           7.9025   -0.3091   -0.5819 H       1  UNL1        0.0624
     42 H           7.3707    1.0636   -2.8255 H       1  UNL1        0.0699
     43 H           2.8646    1.1706   -2.4631 H       1  UNL1        0.0700
@<TRIPOS>BOND
     1     1     2    1
     2     2     3    2
     3     3     4    1
     4     4     5   ar
     5     5     6   ar
     6     6     7   ar
     7     7     8   ar
     8     8     9   ar
     9     9    10   ar
    10    10    11   ar
    11    11    12   ar
    12    12    13   ar
    13    13    14   ar
    14    14    15   ar
    15    15    16   ar
    16    16    17   ar
    17    17    18   ar
    18    18    19   ar
    19     8    20   ar
    20     2    21    1
    21    21    22   ar
    22    22    23   ar
    23    23    24   ar
    24    24    25   ar
    25    25    26   ar
    26    26    27   ar
    27    27    28   ar
    28    28    29   ar
    29    20     1    1
    30    29    21   ar
    31    20     4   ar
    32    29    25   ar
    33    19     7   ar
    34    19    11   ar
    35    18    14   ar
    36     1    30    1
    37     1    31    1
    38     3    32    1
    39     5    33    1
    40    10    34    1
    41    12    35    1
    42    13    36    1
    43    15    37    1
    44    17    38    1
    45    22    39    1
    46    23    40    1
    47    24    41    1
    48    26    42    1
    49    28    43    1
