@<TRIPOS>MOLECULE
*****
 40 45 0 0 0
SMALL
GASTEIGER

@<TRIPOS>ATOM
      1 C           1.5805   -0.2151    0.3497 C.3     1  UNL1        0.0000
      2 C           2.5739    0.2107   -0.7240 C.2     1  UNL1        0.0000
      3 C           1.9505    0.7661   -1.7804 C.2     1  UNL1        0.0000
      4 C           0.5262    0.7653   -1.5095 C.ar    1  UNL1        0.0000
      5 C          -0.5319    1.2163   -2.2597 C.ar    1  UNL1        0.0000
      6 N          -1.8205    1.1357   -1.8406 N.ar    1  UNL1        0.0000
      7 C          -2.0956    0.5910   -0.6321 C.ar    1  UNL1        0.0000
      8 C          -3.4450    0.5112   -0.2033 C.ar    1  UNL1        0.0000
      9 SI         -4.9709    1.0965   -1.1503 Si      1  UNL1        0.0000
     10 C          -6.0540    0.5122    0.2974 C.2     1  UNL1        0.0000
     11 C          -5.3455   -0.0277    1.3058 C.2     1  UNL1        0.0000
     12 C          -3.9139   -0.0311    1.0370 C.ar    1  UNL1        0.0000
     13 C          -2.8810   -0.4987    1.8305 C.ar    1  UNL1        0.0000
     14 C          -2.9618   -1.0750    3.0717 C.ar    1  UNL1        0.0000
     15 N          -1.6736   -1.3723    3.4585 N.ar    1  UNL1        0.0000
     16 C          -0.7786   -0.9922    2.4774 C.ar    1  UNL1        0.0000
     17 C          -1.5042   -0.4432    1.4475 C.ar    1  UNL1        0.0000
     18 C          -1.0366    0.0973    0.2105 C.ar    1  UNL1        0.0000
     19 C           0.2796    0.2000   -0.2635 C.ar    1  UNL1        0.0000
     20 C           3.9977    0.0442   -0.5955 C.2     1  UNL1        0.0000
     21 C           4.9675    0.8608   -1.0627 C.2     1  UNL1        0.0000
     22 C           6.3351    0.4621   -0.7644 C.2     1  UNL1        0.0000
     23 C           6.4629   -0.6704   -0.0507 C.2     1  UNL1        0.0000
     24 SI          4.7884   -1.4140    0.3464 Si      1  UNL1        0.0000
     25 H           1.6000   -1.2981    0.5046 H       1  UNL1        0.0000
     26 H           1.7650    0.3240    1.2842 H       1  UNL1        0.0000
     27 H           2.3969    1.1555   -2.6814 H       1  UNL1        0.0000
     28 H          -0.3892    1.6651   -3.2370 H       1  UNL1        0.0000
     29 H          -5.2823    0.2987   -2.3648 H       1  UNL1        0.0000
     30 H          -5.0758    2.5720   -1.2930 H       1  UNL1        0.0000
     31 H          -7.1254    0.6307    0.2528 H       1  UNL1        0.0000
     32 H          -5.7675   -0.4201    2.2196 H       1  UNL1        0.0000
     33 H          -3.7985   -1.3027    3.7178 H       1  UNL1        0.0000
     34 H          -1.4194   -1.8061    4.3367 H       1  UNL1        0.0000
     35 H           0.2779   -1.1565    2.6287 H       1  UNL1        0.0000
     36 H           4.7796    1.7724   -1.6175 H       1  UNL1        0.0000
     37 H           7.1731    1.0586   -1.1043 H       1  UNL1        0.0000
     38 H           7.3821   -1.1326    0.2725 H       1  UNL1        0.0000
     39 H           4.5666   -2.7160   -0.3299 H       1  UNL1        0.0000
     40 H           4.4676   -1.3748    1.7960 H       1  UNL1        0.0000
@<TRIPOS>BOND
     1     1     2    1
     2     2     3    2
     3     3     4    1
     4     4     5   ar
     5     5     6   ar
     6     6     7   ar
     7     7     8   ar
     8     8     9    1
     9     9    10    1
    10    10    11    2
    11    11    12    1
    12    12    13   ar
    13    13    14   ar
    14    14    15   ar
    15    15    16   ar
    16    16    17   ar
    17    17    18   ar
    18    18    19   ar
    19     2    20    1
    20    20    21    2
    21    21    22    1
    22    22    23    2
    23    23    24    1
    24    19     1    1
    25    24    20    1
    26    19     4   ar
    27    18     7   ar
    28    12     8   ar
    29    17    13   ar
    30     1    25    1
    31     1    26    1
    32     3    27    1
    33     5    28    1
    34     9    29    1
    35     9    30    1
    36    10    31    1
    37    11    32    1
    38    14    33    1
    39    15    34    1
    40    16    35    1
    41    21    36    1
    42    22    37    1
    43    23    38    1
    44    24    39    1
    45    24    40    1
