@<TRIPOS>MOLECULE
*****
 42 48 0 0 0
SMALL
GASTEIGER

@<TRIPOS>ATOM
      1 C          -1.1850    0.6272   -0.3575 C.3     1  UNL1        0.0000
      2 C          -2.3376    0.4142    0.6168 C.2     1  UNL1        0.0000
      3 C          -1.9044   -0.1650    1.7525 C.2     1  UNL1        0.0000
      4 C          -0.4795   -0.4029    1.6253 C.ar    1  UNL1        0.0000
      5 C           0.3962   -0.9771    2.5108 C.ar    1  UNL1        0.0000
      6 N           1.7066   -1.1202    2.2260 N.ar    1  UNL1        0.0000
      7 C           2.1634   -0.6737    1.0113 C.ar    1  UNL1        0.0000
      8 C           3.6144   -0.8729    0.7850 C.ar    1  UNL1        0.0000
      9 C           4.4340   -1.4713    1.7458 C.ar    1  UNL1        0.0000
     10 N           5.7669   -1.6884    1.6139 N.ar    1  UNL1        0.0000
     11 C           6.3273   -1.2895    0.4592 C.ar    1  UNL1        0.0000
     12 C           5.6219   -0.6857   -0.5669 C.ar    1  UNL1        0.0000
     13 C           4.2462   -0.4709   -0.4095 C.ar    1  UNL1        0.0000
     14 C           3.4105    0.1671   -1.4508 C.ar    1  UNL1        0.0000
     15 C           3.8665    0.6063   -2.6435 C.2     1  UNL1        0.0000
     16 SI          2.5071    1.3505   -3.6767 Si      1  UNL1        0.0000
     17 C           1.3324    0.9660   -2.2727 C.2     1  UNL1        0.0000
     18 C           1.9540    0.3707   -1.2318 C.ar    1  UNL1        0.0000
     19 C           1.3291   -0.0683    0.0390 C.ar    1  UNL1        0.0000
     20 C          -0.0157    0.0532    0.3865 C.ar    1  UNL1        0.0000
     21 C          -3.6950    0.7889    0.4414 C.ar    1  UNL1        0.0000
     22 S          -4.1484    2.3162   -0.2355 S.2     1  UNL1        0.0000
     23 C          -5.8328    1.9931   -0.1059 C.ar    1  UNL1        0.0000
     24 C          -5.9786    0.7518    0.4059 C.ar    1  UNL1        0.0000
     25 C          -7.1144   -0.0380    0.7029 C.ar    1  UNL1        0.0000
     26 C          -6.7715   -1.2960    1.2096 C.ar    1  UNL1        0.0000
     27 S          -5.0535   -1.6322    1.3650 S.2     1  UNL1        0.0000
     28 C          -4.8159    0.0438    0.7161 C.ar    1  UNL1        0.0000
     29 H          -1.0391    1.6945   -0.5502 H       1  UNL1        0.0000
     30 H          -1.3746    0.0761   -1.2839 H       1  UNL1        0.0000
     31 H          -2.4749   -0.4148    2.6337 H       1  UNL1        0.0000
     32 H           0.0804   -1.3444    3.4811 H       1  UNL1        0.0000
     33 H           4.0262   -1.8108    2.6960 H       1  UNL1        0.0000
     34 H           7.3945   -1.4724    0.3736 H       1  UNL1        0.0000
     35 H           6.1532   -0.3953   -1.4648 H       1  UNL1        0.0000
     36 H           4.8709    0.5721   -3.0311 H       1  UNL1        0.0000
     37 H           2.2126    0.5539   -4.8912 H       1  UNL1        0.0000
     38 H           2.6802    2.8079   -3.8828 H       1  UNL1        0.0000
     39 H           0.2992    1.2341   -2.3915 H       1  UNL1        0.0000
     40 H          -6.5757    2.7130   -0.4188 H       1  UNL1        0.0000
     41 H          -8.1432    0.2692    0.5590 H       1  UNL1        0.0000
     42 H          -7.4537   -2.0802    1.5088 H       1  UNL1        0.0000
@<TRIPOS>BOND
     1     1     2    1
     2     2     3    2
     3     3     4    1
     4     4     5   ar
     5     5     6   ar
     6     6     7   ar
     7     7     8   ar
     8     8     9   ar
     9     9    10   ar
    10    10    11   ar
    11    11    12   ar
    12    12    13   ar
    13    13    14   ar
    14    14    15    2
    15    15    16    1
    16    16    17    1
    17    17    18    2
    18    18    19   ar
    19    19    20   ar
    20     2    21    1
    21    21    22   ar
    22    22    23   ar
    23    23    24   ar
    24    24    25   ar
    25    25    26   ar
    26    26    27   ar
    27    27    28   ar
    28    20     1    1
    29    28    21   ar
    30    20     4   ar
    31    28    24   ar
    32    19     7   ar
    33    13     8   ar
    34    18    14   ar
    35     1    29    1
    36     1    30    1
    37     3    31    1
    38     5    32    1
    39     9    33    1
    40    11    34    1
    41    12    35    1
    42    15    36    1
    43    16    37    1
    44    16    38    1
    45    17    39    1
    46    23    40    1
    47    25    41    1
    48    26    42    1
