@<TRIPOS>MOLECULE
*****
 41 47 0 0 0
SMALL
GASTEIGER

@<TRIPOS>ATOM
      1 SI         -2.7126    1.0190    3.8726 Si      1  UNL1        0.0000
      2 C          -3.5224    0.6873    2.2168 C.2     1  UNL1        0.0000
      3 C          -2.6027    0.4299    1.2616 C.ar    1  UNL1        0.0000
      4 C          -2.9018    0.1314   -0.1679 C.ar    1  UNL1        0.0000
      5 C          -1.8713   -0.0988   -1.0276 C.ar    1  UNL1        0.0000
      6 C          -0.5505   -0.0342   -0.5055 C.ar    1  UNL1        0.0000
      7 N           0.5708   -0.2408   -1.2725 N.ar    1  UNL1        0.0000
      8 C           1.6569   -0.1043   -0.4424 C.ar    1  UNL1        0.0000
      9 C           1.2045    0.1832    0.8161 C.ar    1  UNL1        0.0000
     10 O           2.2362    0.3364    1.7135 O.2     1  UNL1        0.0000
     11 C           3.3788    0.1334    0.9705 C.ar    1  UNL1        0.0000
     12 C           4.7178    0.1781    1.4157 C.ar    1  UNL1        0.0000
     13 C           5.7722   -0.0604    0.4910 C.ar    1  UNL1        0.0000
     14 C           5.3315   -0.3229   -0.8109 C.ar    1  UNL1        0.0000
     15 C           6.1287   -0.5860   -1.8989 C.ar    1  UNL1        0.0000
     16 N           5.2960   -0.7885   -2.9922 N.ar    1  UNL1        0.0000
     17 C           3.9676   -0.6596   -2.6240 C.ar    1  UNL1        0.0000
     18 C           4.0121   -0.3767   -1.2950 C.ar    1  UNL1        0.0000
     19 C           3.0287   -0.1320   -0.3280 C.ar    1  UNL1        0.0000
     20 C          -0.1899    0.2342    0.8048 C.ar    1  UNL1        0.0000
     21 C          -1.1942    0.4823    1.7664 C.ar    1  UNL1        0.0000
     22 C          -1.0505    0.7657    3.0726 C.2     1  UNL1        0.0000
     23 C          -4.2264    0.0295   -0.7065 C.ar    1  UNL1        0.0000
     24 C          -5.1681   -0.9650   -0.5011 C.ar    1  UNL1        0.0000
     25 C          -6.3907   -0.7231   -1.1917 C.ar    1  UNL1        0.0000
     26 C          -6.3542    0.4547   -1.9015 C.ar    1  UNL1        0.0000
     27 S          -4.8570    1.2615   -1.7327 S.2     1  UNL1        0.0000
     28 H          -2.9238    2.4132    4.3310 H       1  UNL1        0.0000
     29 H          -3.0345   -0.0312    4.8691 H       1  UNL1        0.0000
     30 H          -4.5944    0.7207    2.1053 H       1  UNL1        0.0000
     31 H          -2.0370   -0.3337   -2.0744 H       1  UNL1        0.0000
     32 H           0.6356   -0.4533   -2.2597 H       1  UNL1        0.0000
     33 H           4.9351    0.3935    2.4569 H       1  UNL1        0.0000
     34 H           6.8130   -0.0360    0.7875 H       1  UNL1        0.0000
     35 H           7.2021   -0.6512   -2.0146 H       1  UNL1        0.0000
     36 H           5.6188   -1.0003   -3.9273 H       1  UNL1        0.0000
     37 H           3.1694   -0.7825   -3.3411 H       1  UNL1        0.0000
     38 H          -0.1241    0.8511    3.6188 H       1  UNL1        0.0000
     39 H          -4.9808   -1.8318    0.1218 H       1  UNL1        0.0000
     40 H          -7.2523   -1.3787   -1.1656 H       1  UNL1        0.0000
     41 H          -7.1366    0.8859   -2.5107 H       1  UNL1        0.0000
@<TRIPOS>BOND
     1     1     2    1
     2     2     3    2
     3     3     4   ar
     4     4     5   ar
     5     5     6   ar
     6     6     7   ar
     7     7     8   ar
     8     8     9   ar
     9     9    10   ar
    10    10    11   ar
    11    11    12   ar
    12    12    13   ar
    13    13    14   ar
    14    14    15   ar
    15    15    16   ar
    16    16    17   ar
    17    17    18   ar
    18    18    19   ar
    19     9    20   ar
    20    20    21   ar
    21    21    22    2
    22     4    23    1
    23    23    24   ar
    24    24    25   ar
    25    25    26   ar
    26    26    27   ar
    27    22     1    1
    28    27    23   ar
    29    21     3   ar
    30    20     6   ar
    31    19     8   ar
    32    19    11   ar
    33    18    14   ar
    34     1    28    1
    35     1    29    1
    36     2    30    1
    37     5    31    1
    38     7    32    1
    39    12    33    1
    40    13    34    1
    41    15    35    1
    42    16    36    1
    43    17    37    1
    44    22    38    1
    45    24    39    1
    46    25    40    1
    47    26    41    1
