@<TRIPOS>MOLECULE
*****
 30 34 0 0 0
SMALL
GASTEIGER

@<TRIPOS>ATOM
      1 C          -0.0233    0.4458   -0.0900 C.3     1  UNL1        0.0013
      2 C           0.7041   -0.8840    0.1110 C.2     1  UNL1       -0.0281
      3 C          -0.1816   -1.9057    0.1288 C.2     1  UNL1       -0.0482
      4 C          -1.5237   -1.3778   -0.0506 C.ar    1  UNL1       -0.0011
      5 C          -2.7460   -2.0147   -0.1029 C.ar    1  UNL1        0.0358
      6 N          -3.9290   -1.3802   -0.2778 N.ar    1  UNL1       -0.2529
      7 C          -3.8489   -0.0283   -0.4046 C.ar    1  UNL1        0.0887
      8 C          -4.8884    0.9120   -0.5964 C.ar    1  UNL1       -0.0183
      9 C          -4.3108    2.1625   -0.6661 C.ar    1  UNL1        0.0042
     10 N          -2.9536    2.0110   -0.5227 N.ar    1  UNL1       -0.3592
     11 C          -2.6476    0.6834   -0.3618 C.ar    1  UNL1        0.0691
     12 C          -1.4522    0.0053   -0.1814 C.ar    1  UNL1       -0.0091
     13 C           2.1165   -1.0768    0.2638 C.ar    1  UNL1        0.0239
     14 S           2.8453   -2.6469    0.4877 S.2     1  UNL1       -0.0952
     15 C           4.4448   -2.0358    0.5790 C.ar    1  UNL1       -0.0094
     16 C           4.4400   -0.6808    0.4449 C.ar    1  UNL1        0.0269
     17 S           5.8022    0.4976    0.4577 S.2     1  UNL1       -0.0961
     18 C           4.5539    1.7074    0.2200 C.ar    1  UNL1       -0.0231
     19 C           3.2388    1.2338    0.1422 C.ar    1  UNL1       -0.0459
     20 C           3.1472   -0.1826    0.2732 C.ar    1  UNL1        0.0037
     21 H           0.1203    1.1103    0.7674 H       1  UNL1        0.0363
     22 H           0.2892    0.9327   -1.0188 H       1  UNL1        0.0363
     23 H           0.0090   -2.9605    0.2517 H       1  UNL1        0.0627
     24 H          -2.8197   -3.0933   -0.0026 H       1  UNL1        0.0836
     25 H          -5.9433    0.6890   -0.6739 H       1  UNL1        0.0654
     26 H          -4.7476    3.1425   -0.8048 H       1  UNL1        0.0807
     27 H          -2.2802    2.7646   -0.5340 H       1  UNL1        0.1654
     28 H           5.3054   -2.6742    0.7236 H       1  UNL1        0.0705
     29 H           4.8751    2.7377    0.1488 H       1  UNL1        0.0694
     30 H           2.4042    1.9061   -0.0032 H       1  UNL1        0.0629
@<TRIPOS>BOND
     1     1     2    1
     2     2     3    2
     3     3     4    1
     4     4     5   ar
     5     5     6   ar
     6     6     7   ar
     7     7     8   ar
     8     8     9   ar
     9     9    10   ar
    10    10    11   ar
    11    11    12   ar
    12     2    13    1
    13    13    14   ar
    14    14    15   ar
    15    15    16   ar
    16    16    17   ar
    17    17    18   ar
    18    18    19   ar
    19    19    20   ar
    20    12     1    1
    21    20    13   ar
    22    12     4   ar
    23    20    16   ar
    24    11     7   ar
    25     1    21    1
    26     1    22    1
    27     3    23    1
    28     5    24    1
    29     8    25    1
    30     9    26    1
    31    10    27    1
    32    15    28    1
    33    18    29    1
    34    19    30    1
