@<TRIPOS>MOLECULE
*****
 40 46 0 0 0
SMALL
GASTEIGER

@<TRIPOS>ATOM
      1 C           0.7672   -0.2186    0.7162 C.3     1  UNL1       -0.0000
      2 C           2.1440   -0.0287    0.0721 C.2     1  UNL1       -0.0266
      3 C           2.0080    0.3605   -1.2129 C.2     1  UNL1       -0.0482
      4 C           0.5957    0.4601   -1.5262 C.ar    1  UNL1       -0.0025
      5 C          -0.0512    0.8123   -2.6839 C.ar    1  UNL1        0.0357
      6 N          -1.4029    0.8451   -2.7780 N.ar    1  UNL1       -0.2544
      7 C          -2.1357    0.5185   -1.6902 C.ar    1  UNL1        0.0719
      8 C          -3.5235    0.5510   -1.7840 C.ar    1  UNL1       -0.0279
      9 C          -4.3719    0.2292   -0.7113 C.ar    1  UNL1       -0.0137
     10 C          -5.7856    0.2797   -0.8649 C.ar    1  UNL1       -0.0518
     11 C          -6.7032   -0.0270    0.1585 C.ar    1  UNL1       -0.0329
     12 C          -6.1481   -0.4043    1.4014 C.ar    1  UNL1        0.1005
     13 N          -6.8438   -0.7343    2.5000 N.ar    1  UNL1       -0.1908
     14 S          -5.7261   -1.0923    3.6738 S.2     1  UNL1        0.1165
     15 N          -4.3105   -0.8453    2.8428 N.ar    1  UNL1       -0.1902
     16 C          -4.6555   -0.4680    1.5979 C.ar    1  UNL1        0.1076
     17 C          -3.7658   -0.1440    0.5175 C.ar    1  UNL1        0.0110
     18 C          -2.3642   -0.1858    0.6415 C.ar    1  UNL1       -0.0424
     19 C          -1.5531    0.1439   -0.4571 C.ar    1  UNL1        0.0051
     20 C          -0.1600    0.1249   -0.4091 C.ar    1  UNL1       -0.0253
     21 C           3.4322   -0.2177    0.6806 C.ar    1  UNL1        0.0431
     22 S           3.4868   -0.7235    2.3506 S.2     1  UNL1       -0.0926
     23 C           5.1926   -0.7477    2.4083 C.ar    1  UNL1        0.0038
     24 C           5.7350   -0.3859    1.2066 C.ar    1  UNL1        0.0968
     25 N           7.0802   -0.3288    1.0007 N.ar    1  UNL1       -0.2514
     26 C           7.3567    0.0559   -0.2732 C.ar    1  UNL1        0.0464
     27 C           6.3989    0.3546   -1.2472 C.ar    1  UNL1        0.0464
     28 N           5.0519    0.3046   -1.0648 N.ar    1  UNL1       -0.2508
     29 C           4.7323   -0.0798    0.2089 C.ar    1  UNL1        0.1036
     30 H           0.6296    0.4706    1.5556 H       1  UNL1        0.0362
     31 H           0.6236   -1.2564    1.0336 H       1  UNL1        0.0362
     32 H           2.7796    0.5760   -1.9348 H       1  UNL1        0.0627
     33 H           0.4885    1.0829   -3.5849 H       1  UNL1        0.0836
     34 H          -3.9507    0.8421   -2.7430 H       1  UNL1        0.0645
     35 H          -6.1993    0.5733   -1.8322 H       1  UNL1        0.0624
     36 H          -7.7748    0.0221    0.0065 H       1  UNL1        0.0640
     37 H          -1.9198   -0.4744    1.5917 H       1  UNL1        0.0631
     38 H           5.7158   -1.0234    3.3123 H       1  UNL1        0.0715
     39 H           8.4148    0.1234   -0.5101 H       1  UNL1        0.0845
     40 H           6.7123    0.6550   -2.2432 H       1  UNL1        0.0845
@<TRIPOS>BOND
     1     1     2    1
     2     2     3    2
     3     3     4    1
     4     4     5   ar
     5     5     6   ar
     6     6     7   ar
     7     7     8   ar
     8     8     9   ar
     9     9    10   ar
    10    10    11   ar
    11    11    12   ar
    12    12    13   ar
    13    13    14   ar
    14    14    15   ar
    15    15    16   ar
    16    16    17   ar
    17    17    18   ar
    18    18    19   ar
    19    19    20   ar
    20     2    21    1
    21    21    22   ar
    22    22    23   ar
    23    23    24   ar
    24    24    25   ar
    25    25    26   ar
    26    26    27   ar
    27    27    28   ar
    28    28    29   ar
    29    20     1    1
    30    29    21   ar
    31    20     4   ar
    32    29    24   ar
    33    19     7   ar
    34    17     9   ar
    35    16    12   ar
    36     1    30    1
    37     1    31    1
    38     3    32    1
    39     5    33    1
    40     8    34    1
    41    10    35    1
    42    11    36    1
    43    18    37    1
    44    23    38    1
    45    26    39    1
    46    27    40    1
