@<TRIPOS>MOLECULE
*****
 36 40 0 0 0
SMALL
GASTEIGER

@<TRIPOS>ATOM
      1 C          -0.5902   -0.7902   -0.3301 C.3     1  UNL1       -0.0006
      2 C           0.6409    0.0877   -0.4436 C.2     1  UNL1       -0.0346
      3 C           0.3287    1.3946   -0.5175 C.2     1  UNL1       -0.0488
      4 C          -1.1148    1.5059   -0.4368 C.ar    1  UNL1       -0.0025
      5 C          -1.9384    2.6035   -0.4567 C.ar    1  UNL1        0.0357
      6 N          -3.2865    2.5015   -0.3669 N.ar    1  UNL1       -0.2544
      7 C          -3.8345    1.2693   -0.2547 C.ar    1  UNL1        0.0713
      8 C          -5.2143    1.1506   -0.1621 C.ar    1  UNL1       -0.0357
      9 C          -5.8440   -0.0929   -0.0446 C.ar    1  UNL1       -0.0597
     10 C          -5.0834   -1.2562   -0.0178 C.ar    1  UNL1       -0.0611
     11 C          -3.6960   -1.1735   -0.1087 C.ar    1  UNL1       -0.0523
     12 C          -3.0656    0.0814   -0.2271 C.ar    1  UNL1        0.0044
     13 C          -1.6834    0.2382   -0.3224 C.ar    1  UNL1       -0.0253
     14 C           1.9747   -0.4875   -0.5012 C.ar    1  UNL1       -0.0124
     15 C           2.3214   -1.6419   -1.2512 C.ar    1  UNL1       -0.0537
     16 C           3.6421   -2.2148   -1.3020 C.ar    1  UNL1       -0.0606
     17 C           4.7563   -1.7051   -0.6000 C.ar    1  UNL1       -0.0526
     18 C           4.3943   -0.5894    0.1420 C.ar    1  UNL1       -0.0000
     19 C           5.2292    0.1278    0.9587 C.ar    1  UNL1        0.0094
     20 N           4.4681    1.1254    1.5280 N.ar    1  UNL1       -0.3659
     21 C           3.1638    1.0452    1.0842 C.ar    1  UNL1        0.0100
     22 C           3.0896   -0.0045    0.1988 C.ar    1  UNL1        0.0068
     23 H          -0.5822   -1.3608    0.6040 H       1  UNL1        0.0362
     24 H          -0.6952   -1.4549   -1.1930 H       1  UNL1        0.0362
     25 H           1.0004    2.2300   -0.6320 H       1  UNL1        0.0627
     26 H          -1.5504    3.6121   -0.5455 H       1  UNL1        0.0836
     27 H          -5.8185    2.0547   -0.1821 H       1  UNL1        0.0639
     28 H          -6.9274   -0.1454    0.0257 H       1  UNL1        0.0618
     29 H          -5.5687   -2.2245    0.0738 H       1  UNL1        0.0618
     30 H          -3.1106   -2.0890   -0.0860 H       1  UNL1        0.0624
     31 H           1.5517   -2.1292   -1.8503 H       1  UNL1        0.0624
     32 H           3.7875   -3.0986   -1.9242 H       1  UNL1        0.0618
     33 H           5.7419   -2.1451   -0.6408 H       1  UNL1        0.0624
     34 H           6.2781    0.0254    1.2008 H       1  UNL1        0.0813
     35 H           4.8115    1.8093    2.1897 H       1  UNL1        0.1648
     36 H           2.4237    1.7410    1.4535 H       1  UNL1        0.0813
@<TRIPOS>BOND
     1     1     2    1
     2     2     3    2
     3     3     4    1
     4     4     5   ar
     5     5     6   ar
     6     6     7   ar
     7     7     8   ar
     8     8     9   ar
     9     9    10   ar
    10    10    11   ar
    11    11    12   ar
    12    12    13   ar
    13     2    14    1
    14    14    15   ar
    15    15    16   ar
    16    16    17   ar
    17    17    18   ar
    18    18    19   ar
    19    19    20   ar
    20    20    21   ar
    21    21    22   ar
    22    13     1    1
    23    22    14   ar
    24    13     4   ar
    25    22    18   ar
    26    12     7   ar
    27     1    23    1
    28     1    24    1
    29     3    25    1
    30     5    26    1
    31     8    27    1
    32     9    28    1
    33    10    29    1
    34    11    30    1
    35    15    31    1
    36    16    32    1
    37    17    33    1
    38    19    34    1
    39    20    35    1
    40    21    36    1
