@<TRIPOS>MOLECULE
*****
 34 38 0 0 0
SMALL
GASTEIGER

@<TRIPOS>ATOM
      1 C           1.0933   -0.5697   -0.2632 C.3     1  UNL1        0.0022
      2 C           2.1819    0.4724   -0.0400 C.2     1  UNL1       -0.0323
      3 C           1.6528    1.6995    0.1479 C.2     1  UNL1       -0.0319
      4 C           0.2057    1.5911    0.0694 C.ar    1  UNL1        0.0696
      5 N          -0.6271    2.6289    0.2123 N.ar    1  UNL1       -0.2545
      6 C          -1.9583    2.3653    0.1119 C.ar    1  UNL1        0.0395
      7 C          -2.4257    1.0597   -0.1307 C.ar    1  UNL1        0.0440
      8 C          -1.5010    0.0164   -0.2707 C.ar    1  UNL1        0.0560
      9 N          -2.2081   -1.1387   -0.4976 N.ar    1  UNL1       -0.3526
     10 C          -3.5582   -0.8816   -0.5098 C.ar    1  UNL1        0.0661
     11 C          -4.6562   -1.7208   -0.6989 C.ar    1  UNL1       -0.0348
     12 C          -5.9050   -1.1074   -0.6459 C.ar    1  UNL1       -0.0416
     13 C          -5.9832    0.2594   -0.4154 C.ar    1  UNL1        0.0284
     14 N          -4.9329    1.0863   -0.2303 N.ar    1  UNL1       -0.2528
     15 C          -3.7174    0.4842   -0.2828 C.ar    1  UNL1        0.0976
     16 C          -0.1439    0.2700   -0.1710 C.ar    1  UNL1        0.0063
     17 C           3.6120    0.1225   -0.0406 C.ar    1  UNL1       -0.0034
     18 C           4.0474   -1.1927   -0.2450 C.ar    1  UNL1       -0.0514
     19 C           5.4092   -1.4990   -0.2411 C.ar    1  UNL1       -0.0430
     20 C           6.3138   -0.4749   -0.0313 C.ar    1  UNL1        0.0276
     21 N           5.9498    0.8056    0.1700 N.ar    1  UNL1       -0.2627
     22 C           4.6179    1.0702    0.1604 C.ar    1  UNL1        0.0350
     23 H           1.1706   -1.0286   -1.2538 H       1  UNL1        0.0363
     24 H           1.0969   -1.3320    0.5221 H       1  UNL1        0.0363
     25 H           2.1404    2.6422    0.3294 H       1  UNL1        0.0642
     26 H          -2.6318    3.2077    0.2280 H       1  UNL1        0.0837
     27 H          -1.7967   -2.0504   -0.6365 H       1  UNL1        0.1660
     28 H          -4.5508   -2.7847   -0.8765 H       1  UNL1        0.0639
     29 H          -6.8111   -1.6887   -0.7829 H       1  UNL1        0.0633
     30 H          -6.9534    0.7492   -0.3719 H       1  UNL1        0.0830
     31 H           3.3433   -2.0027   -0.4104 H       1  UNL1        0.0624
     32 H           5.7537   -2.5150   -0.3986 H       1  UNL1        0.0633
     33 H           7.3835   -0.6621   -0.0193 H       1  UNL1        0.0829
     34 H           4.3886    2.1188    0.3279 H       1  UNL1        0.0835
@<TRIPOS>BOND
     1     1     2    1
     2     2     3    2
     3     3     4    1
     4     4     5   ar
     5     5     6   ar
     6     6     7   ar
     7     7     8   ar
     8     8     9   ar
     9     9    10   ar
    10    10    11   ar
    11    11    12   ar
    12    12    13   ar
    13    13    14   ar
    14    14    15   ar
    15     8    16   ar
    16     2    17    1
    17    17    18   ar
    18    18    19   ar
    19    19    20   ar
    20    20    21   ar
    21    21    22   ar
    22    16     1    1
    23    22    17   ar
    24    16     4   ar
    25    15     7   ar
    26    15    10   ar
    27     1    23    1
    28     1    24    1
    29     3    25    1
    30     6    26    1
    31     9    27    1
    32    11    28    1
    33    12    29    1
    34    13    30    1
    35    18    31    1
    36    19    32    1
    37    20    33    1
    38    22    34    1
