@<TRIPOS>MOLECULE
*****
 48 55 0 0 0
SMALL
GASTEIGER

@<TRIPOS>ATOM
      1 C           1.6769   -0.7107    0.5907 C.3     1  UNL1        0.0014
      2 C           2.8881    0.0739    0.0900 C.2     1  UNL1       -0.0251
      3 C           2.4767    1.1250   -0.6404 C.2     1  UNL1       -0.0314
      4 C           1.0298    1.1103   -0.6839 C.ar    1  UNL1        0.0682
      5 N           0.3254    2.0473   -1.2972 N.ar    1  UNL1       -0.2546
      6 C          -1.0083    1.8513   -1.2236 C.ar    1  UNL1        0.0366
      7 C          -1.6930    0.7664   -0.6179 C.ar    1  UNL1        0.0094
      8 C          -0.9067   -0.1646    0.1142 C.ar    1  UNL1       -0.0026
      9 C           0.5016    0.0345    0.0222 C.ar    1  UNL1       -0.0093
     10 C          -1.5875   -1.1859    0.8874 C.ar    1  UNL1       -0.0092
     11 C          -0.8978   -2.1895    1.6250 C.ar    1  UNL1       -0.0534
     12 C          -1.5260   -3.1527    2.4142 C.ar    1  UNL1       -0.0611
     13 C          -2.8956   -3.1580    2.4985 C.ar    1  UNL1       -0.0611
     14 C          -3.6172   -2.2069    1.7823 C.ar    1  UNL1       -0.0534
     15 C          -3.0163   -1.2067    0.9621 C.ar    1  UNL1       -0.0095
     16 C          -3.8104   -0.2769    0.2099 C.ar    1  UNL1       -0.0089
     17 C          -5.2708   -0.2504    0.3109 C.ar    1  UNL1       -0.0528
     18 C          -6.1734    0.5310   -0.4375 C.ar    1  UNL1       -0.0529
     19 C          -5.4989    1.2704   -1.3857 C.ar    1  UNL1       -0.0103
     20 C          -6.1868    2.0248   -2.3046 C.ar    1  UNL1       -0.0166
     21 S          -5.1200    2.7330   -3.4376 S.2     1  UNL1       -0.1039
     22 C          -3.7509    2.0133   -2.6849 C.ar    1  UNL1       -0.0160
     23 C          -4.0656    1.3280   -1.5291 C.ar    1  UNL1       -0.0025
     24 C          -3.1291    0.6331   -0.6682 C.ar    1  UNL1        0.0001
     25 C           4.2779   -0.1988    0.3252 C.ar    1  UNL1        0.0432
     26 S           4.6924   -1.4296    1.4905 S.2     1  UNL1       -0.0926
     27 C           6.3746   -1.2269    1.2768 C.ar    1  UNL1        0.0038
     28 C           6.6442   -0.2632    0.3450 C.ar    1  UNL1        0.0968
     29 N           7.9151    0.0774   -0.0077 N.ar    1  UNL1       -0.2514
     30 C           7.9062    1.0532   -0.9548 C.ar    1  UNL1        0.0464
     31 C           6.7564    1.6336   -1.4996 C.ar    1  UNL1        0.0464
     32 N           5.4799    1.3089   -1.1623 N.ar    1  UNL1       -0.2508
     33 C           5.4465    0.3307   -0.2078 C.ar    1  UNL1        0.1036
     34 H           1.6552   -0.6907    1.6851 H       1  UNL1        0.0363
     35 H           1.7175   -1.7323    0.1988 H       1  UNL1        0.0363
     36 H           3.0558    1.8873   -1.1343 H       1  UNL1        0.0642
     37 H          -1.5495    2.6909   -1.6467 H       1  UNL1        0.0836
     38 H           0.1789   -2.2674    1.6101 H       1  UNL1        0.0624
     39 H          -0.9366   -3.8895    2.9532 H       1  UNL1        0.0618
     40 H          -3.4108   -3.8989    3.1031 H       1  UNL1        0.0618
     41 H          -4.6949   -2.2935    1.8766 H       1  UNL1        0.0624
     42 H          -5.7655   -0.8914    1.0390 H       1  UNL1        0.0624
     43 H          -7.2458    0.4818   -0.3065 H       1  UNL1        0.0624
     44 H          -7.2538    2.1741   -2.3993 H       1  UNL1        0.0699
     45 H          -2.8039    2.1388   -3.1864 H       1  UNL1        0.0700
     46 H           7.0830   -1.8205    1.8361 H       1  UNL1        0.0715
     47 H           8.8890    1.3769   -1.2857 H       1  UNL1        0.0845
     48 H           6.8437    2.4093   -2.2554 H       1  UNL1        0.0845
@<TRIPOS>BOND
     1     1     2    1
     2     2     3    2
     3     3     4    1
     4     4     5   ar
     5     5     6   ar
     6     6     7   ar
     7     7     8   ar
     8     8     9   ar
     9     8    10   ar
    10    10    11   ar
    11    11    12   ar
    12    12    13   ar
    13    13    14   ar
    14    14    15   ar
    15    15    16   ar
    16    16    17   ar
    17    17    18   ar
    18    18    19   ar
    19    19    20   ar
    20    20    21   ar
    21    21    22   ar
    22    22    23   ar
    23    23    24   ar
    24     2    25    1
    25    25    26   ar
    26    26    27   ar
    27    27    28   ar
    28    28    29   ar
    29    29    30   ar
    30    30    31   ar
    31    31    32   ar
    32    32    33   ar
    33     9     1    1
    34    15    10   ar
    35    24    16   ar
    36    33    25   ar
    37     9     4   ar
    38    23    19   ar
    39    33    28   ar
    40    24     7   ar
    41     1    34    1
    42     1    35    1
    43     3    36    1
    44     6    37    1
    45    11    38    1
    46    12    39    1
    47    13    40    1
    48    14    41    1
    49    17    42    1
    50    18    43    1
    51    20    44    1
    52    22    45    1
    53    27    46    1
    54    30    47    1
    55    31    48    1
