@<TRIPOS>MOLECULE
*****
 48 55 0 0 0
SMALL
GASTEIGER

@<TRIPOS>ATOM
      1 C          -1.0206   -0.3781   -1.0123 C.3     1  UNL1        0.0009
      2 C          -2.0003    0.7047   -0.6033 C.2     1  UNL1       -0.0332
      3 C          -1.4223    1.6756    0.1255 C.2     1  UNL1       -0.0320
      4 C          -0.0297    1.3092    0.2828 C.ar    1  UNL1        0.0683
      5 N           0.8678    2.0425    0.9348 N.ar    1  UNL1       -0.2546
      6 C           2.1239    1.5158    0.9595 C.ar    1  UNL1        0.0366
      7 C           2.5593    0.2857    0.4053 C.ar    1  UNL1        0.0110
      8 C           1.5397   -0.3972   -0.3252 C.ar    1  UNL1        0.0178
      9 C           0.2368    0.1166   -0.3623 C.ar    1  UNL1       -0.0078
     10 C           1.9130   -1.5898   -1.0270 C.ar    1  UNL1        0.1085
     11 N           1.0976   -2.3608   -1.7706 N.ar    1  UNL1       -0.1901
     12 S           2.0127   -3.5871   -2.3924 S.2     1  UNL1        0.1165
     13 N           3.4875   -3.2055   -1.7544 N.ar    1  UNL1       -0.1901
     14 C           3.3279   -2.0944   -1.0083 C.ar    1  UNL1        0.1082
     15 C           4.3507   -1.4315   -0.2568 C.ar    1  UNL1        0.0116
     16 C           5.6880   -1.9845   -0.3087 C.ar    1  UNL1       -0.0513
     17 C           6.7791   -1.4738    0.4027 C.ar    1  UNL1       -0.0529
     18 C           6.3990   -0.4087    1.2054 C.ar    1  UNL1       -0.0103
     19 C           7.3149    0.1854    2.0396 C.ar    1  UNL1       -0.0166
     20 S           6.5848    1.3984    2.9957 S.2     1  UNL1       -0.1039
     21 C           5.0413    1.1123    2.2907 C.ar    1  UNL1       -0.0160
     22 C           5.0676    0.1720    1.2831 C.ar    1  UNL1       -0.0025
     23 C           3.9294   -0.2611    0.5005 C.ar    1  UNL1        0.0017
     24 C          -3.4029    0.6755   -1.0280 C.ar    1  UNL1       -0.0138
     25 C          -3.6569    0.8063   -2.4027 C.ar    1  UNL1       -0.0537
     26 C          -4.9606    0.8068   -2.8874 C.ar    1  UNL1       -0.0606
     27 C          -6.0277    0.6758   -2.0034 C.ar    1  UNL1       -0.0540
     28 C          -5.8093    0.5371   -0.6246 C.ar    1  UNL1       -0.0173
     29 C          -6.9011    0.3991    0.2490 C.ar    1  UNL1       -0.0540
     30 C          -6.7094    0.2482    1.6213 C.ar    1  UNL1       -0.0612
     31 C          -5.4216    0.2296    2.1385 C.ar    1  UNL1       -0.0611
     32 C          -4.3259    0.3669    1.2831 C.ar    1  UNL1       -0.0535
     33 C          -4.4856    0.5318   -0.1143 C.ar    1  UNL1       -0.0105
     34 H          -0.9105   -0.4230   -2.1000 H       1  UNL1        0.0362
     35 H          -1.3221   -1.3481   -0.6048 H       1  UNL1        0.0362
     36 H          -1.8628    2.5712    0.5294 H       1  UNL1        0.0642
     37 H           2.8184    2.1995    1.4312 H       1  UNL1        0.0836
     38 H           5.8725   -2.8588   -0.9376 H       1  UNL1        0.0624
     39 H           7.7695   -1.9066    0.3491 H       1  UNL1        0.0624
     40 H           8.3659   -0.0391    2.1629 H       1  UNL1        0.0699
     41 H           4.2234    1.6661    2.7180 H       1  UNL1        0.0700
     42 H          -2.8359    0.9254   -3.1067 H       1  UNL1        0.0624
     43 H          -5.1460    0.9150   -3.9527 H       1  UNL1        0.0618
     44 H          -7.0401    0.6810   -2.4022 H       1  UNL1        0.0624
     45 H          -7.9183    0.4060   -0.1371 H       1  UNL1        0.0624
     46 H          -7.5652    0.1422    2.2825 H       1  UNL1        0.0618
     47 H          -5.2633    0.1074    3.2068 H       1  UNL1        0.0618
     48 H          -3.3327    0.3386    1.7255 H       1  UNL1        0.0624
@<TRIPOS>BOND
     1     1     2    1
     2     2     3    2
     3     3     4    1
     4     4     5   ar
     5     5     6   ar
     6     6     7   ar
     7     7     8   ar
     8     8     9   ar
     9     8    10   ar
    10    10    11   ar
    11    11    12   ar
    12    12    13   ar
    13    13    14   ar
    14    14    15   ar
    15    15    16   ar
    16    16    17   ar
    17    17    18   ar
    18    18    19   ar
    19    19    20   ar
    20    20    21   ar
    21    21    22   ar
    22    22    23   ar
    23     2    24    1
    24    24    25   ar
    25    25    26   ar
    26    26    27   ar
    27    27    28   ar
    28    28    29   ar
    29    29    30   ar
    30    30    31   ar
    31    31    32   ar
    32    32    33   ar
    33     9     1    1
    34    14    10   ar
    35    23    15   ar
    36    33    24   ar
    37     9     4   ar
    38    22    18   ar
    39    33    28   ar
    40    23     7   ar
    41     1    34    1
    42     1    35    1
    43     3    36    1
    44     6    37    1
    45    16    38    1
    46    17    39    1
    47    19    40    1
    48    21    41    1
    49    25    42    1
    50    26    43    1
    51    27    44    1
    52    29    45    1
    53    30    46    1
    54    31    47    1
    55    32    48    1
