@<TRIPOS>MOLECULE
*****
 43 49 0 0 0
SMALL
GASTEIGER

@<TRIPOS>ATOM
      1 C          -1.4421    0.3913    0.1198 C.3     1  UNL1        0.0009
      2 C          -2.3086   -0.8571    0.1209 C.2     1  UNL1       -0.0331
      3 C          -1.5453   -1.9652    0.0141 C.2     1  UNL1       -0.0319
      4 C          -0.1581   -1.5551   -0.0637 C.ar    1  UNL1        0.0682
      5 N           0.8707   -2.3896   -0.1758 N.ar    1  UNL1       -0.2546
      6 C           2.0867   -1.7788   -0.2318 C.ar    1  UNL1        0.0366
      7 C           2.3468   -0.3834   -0.1835 C.ar    1  UNL1        0.0117
      8 C           1.1917    0.4191   -0.0638 C.ar    1  UNL1        0.0078
      9 C           1.3505    1.7970   -0.0086 C.ar    1  UNL1        0.0364
     10 N           2.5345    2.4382   -0.0606 N.ar    1  UNL1       -0.2543
     11 C           3.6552    1.7251   -0.1736 C.ar    1  UNL1        0.0722
     12 C           4.8306    2.5111   -0.2179 C.ar    1  UNL1       -0.0351
     13 C           6.1475    2.0325   -0.3334 C.ar    1  UNL1       -0.0515
     14 C           6.1671    0.6501   -0.4022 C.ar    1  UNL1       -0.0102
     15 C           7.3556   -0.0272   -0.5188 C.ar    1  UNL1       -0.0166
     16 S           7.0977   -1.7154   -0.5835 S.2     1  UNL1       -0.1039
     17 C           5.3903   -1.5240   -0.4544 C.ar    1  UNL1       -0.0160
     18 C           4.9991   -0.2076   -0.3620 C.ar    1  UNL1       -0.0011
     19 C           3.6424    0.2860   -0.2424 C.ar    1  UNL1        0.0177
     20 C          -0.0642   -0.1812   -0.0045 C.ar    1  UNL1       -0.0085
     21 C          -3.7695   -0.8571    0.2236 C.ar    1  UNL1       -0.0108
     22 C          -4.5734   -2.0375    0.2229 C.ar    1  UNL1       -0.0536
     23 C          -6.0112   -2.0714    0.3224 C.ar    1  UNL1       -0.0605
     24 C          -6.8220   -0.9266    0.4350 C.ar    1  UNL1       -0.0510
     25 C          -6.0353    0.2139    0.4350 C.ar    1  UNL1        0.0204
     26 C          -6.4949    1.4990    0.5298 C.ar    1  UNL1        0.0994
     27 O          -5.4368    2.3586    0.4970 O.2     1  UNL1       -0.4698
     28 C          -4.2983    1.6081    0.3804 C.ar    1  UNL1        0.1000
     29 C          -4.6037    0.2689    0.3369 C.ar    1  UNL1        0.0272
     30 H          -1.6620    1.0278   -0.7428 H       1  UNL1        0.0362
     31 H          -1.5351    0.9412    1.0615 H       1  UNL1        0.0362
     32 H          -1.8334   -3.0018   -0.0153 H       1  UNL1        0.0642
     33 H           2.8815   -2.5042   -0.3218 H       1  UNL1        0.0836
     34 H           0.4973    2.4647    0.0834 H       1  UNL1        0.0836
     35 H           4.7019    3.5945   -0.1563 H       1  UNL1        0.0639
     36 H           7.0088    2.6863   -0.3621 H       1  UNL1        0.0624
     37 H           8.3610    0.3689   -0.5700 H       1  UNL1        0.0699
     38 H           4.8224   -2.4359   -0.4598 H       1  UNL1        0.0700
     39 H          -4.0855   -3.0097    0.1413 H       1  UNL1        0.0624
     40 H          -6.4963   -3.0487    0.3091 H       1  UNL1        0.0618
     41 H          -7.8994   -0.9594    0.5093 H       1  UNL1        0.0625
     42 H          -7.4690    1.9583    0.6206 H       1  UNL1        0.1035
     43 H          -3.3953    2.1966    0.3455 H       1  UNL1        0.1036
@<TRIPOS>BOND
     1     1     2    1
     2     2     3    2
     3     3     4    1
     4     4     5   ar
     5     5     6   ar
     6     6     7   ar
     7     7     8   ar
     8     8     9   ar
     9     9    10   ar
    10    10    11   ar
    11    11    12   ar
    12    12    13   ar
    13    13    14   ar
    14    14    15   ar
    15    15    16   ar
    16    16    17   ar
    17    17    18   ar
    18    18    19   ar
    19     8    20   ar
    20     2    21    1
    21    21    22   ar
    22    22    23   ar
    23    23    24   ar
    24    24    25   ar
    25    25    26   ar
    26    26    27   ar
    27    27    28   ar
    28    28    29   ar
    29    20     1    1
    30    29    21   ar
    31    20     4   ar
    32    29    25   ar
    33    19     7   ar
    34    19    11   ar
    35    18    14   ar
    36     1    30    1
    37     1    31    1
    38     3    32    1
    39     6    33    1
    40     9    34    1
    41    12    35    1
    42    13    36    1
    43    15    37    1
    44    17    38    1
    45    22    39    1
    46    23    40    1
    47    24    41    1
    48    26    42    1
    49    28    43    1
