@<TRIPOS>MOLECULE
*****
 40 45 0 0 0
SMALL
GASTEIGER

@<TRIPOS>ATOM
      1 C           2.9085    0.4354   -0.5490 C.3     1  UNL1        0.0052
      2 C           3.7194   -0.6321    0.1818 C.2     1  UNL1        0.0013
      3 C           2.9171   -1.4720    0.8659 C.2     1  UNL1       -0.0290
      4 C           1.5484   -1.0459    0.6514 C.ar    1  UNL1        0.0698
      5 N           0.4860   -1.6164    1.2074 N.ar    1  UNL1       -0.2545
      6 C          -0.6934   -1.0341    0.8657 C.ar    1  UNL1        0.0380
      7 C          -0.8836    0.0549   -0.0253 C.ar    1  UNL1        0.0271
      8 C           0.3157    0.6394   -0.5005 C.ar    1  UNL1        0.0785
      9 N           0.3494    1.7546   -1.2325 N.ar    1  UNL1       -0.2540
     10 C          -0.8208    2.3705   -1.4737 C.ar    1  UNL1        0.0360
     11 C          -2.0679    1.8898   -1.0934 C.ar    1  UNL1        0.0015
     12 C          -3.1993    2.6576   -1.3832 C.ar    1  UNL1       -0.0520
     13 C          -4.4655    2.2078   -1.0437 C.ar    1  UNL1       -0.0534
     14 C          -4.6385    0.9433   -0.4887 C.ar    1  UNL1       -0.0173
     15 C          -5.9487    0.4997   -0.2384 C.ar    1  UNL1       -0.0540
     16 C          -6.1957   -0.7858    0.2267 C.ar    1  UNL1       -0.0612
     17 C          -5.1321   -1.6494    0.4140 C.ar    1  UNL1       -0.0611
     18 C          -3.8241   -1.2076    0.1795 C.ar    1  UNL1       -0.0534
     19 C          -3.5102    0.1181   -0.2202 C.ar    1  UNL1       -0.0095
     20 C          -2.1587    0.6448   -0.4251 C.ar    1  UNL1        0.0019
     21 C           1.5139    0.0578   -0.1730 C.ar    1  UNL1        0.0084
     22 C           5.1359   -0.7668    0.1773 C.ar    1  UNL1        0.1312
     23 C           5.9738   -1.6872    0.8010 C.ar    1  UNL1       -0.0162
     24 C           7.3102   -1.3663    0.4629 C.ar    1  UNL1       -0.0233
     25 C           7.2344   -0.2668   -0.3507 C.ar    1  UNL1        0.0926
     26 O           5.9436    0.1004   -0.5287 O.2     1  UNL1       -0.4632
     27 H           3.1628    1.4351   -0.1828 H       1  UNL1        0.0364
     28 H           3.0600    0.3677   -1.6309 H       1  UNL1        0.0364
     29 H           3.1739   -2.3185    1.4792 H       1  UNL1        0.0643
     30 H          -1.5224   -1.4619    1.4179 H       1  UNL1        0.0836
     31 H          -0.7182    3.3084   -2.0160 H       1  UNL1        0.0836
     32 H          -3.1059    3.6276   -1.8688 H       1  UNL1        0.0624
     33 H          -5.3219    2.8416   -1.2656 H       1  UNL1        0.0624
     34 H          -6.7989    1.1532   -0.4262 H       1  UNL1        0.0624
     35 H          -7.2141   -1.1191    0.4053 H       1  UNL1        0.0618
     36 H          -5.3105   -2.6758    0.7250 H       1  UNL1        0.0618
     37 H          -3.0546   -1.9677    0.2564 H       1  UNL1        0.0624
     38 H           5.6522   -2.5033    1.4331 H       1  UNL1        0.0655
     39 H           8.2120   -1.8737    0.7743 H       1  UNL1        0.0649
     40 H           7.9681    0.3428   -0.8592 H       1  UNL1        0.1029
@<TRIPOS>BOND
     1     1     2    1
     2     2     3    2
     3     3     4    1
     4     4     5   ar
     5     5     6   ar
     6     6     7   ar
     7     7     8   ar
     8     8     9   ar
     9     9    10   ar
    10    10    11   ar
    11    11    12   ar
    12    12    13   ar
    13    13    14   ar
    14    14    15   ar
    15    15    16   ar
    16    16    17   ar
    17    17    18   ar
    18    18    19   ar
    19    19    20   ar
    20     8    21   ar
    21     2    22    1
    22    22    23   ar
    23    23    24   ar
    24    24    25   ar
    25    25    26   ar
    26    21     1    1
    27    26    22   ar
    28    21     4   ar
    29    20     7   ar
    30    20    11   ar
    31    19    14   ar
    32     1    27    1
    33     1    28    1
    34     3    29    1
    35     6    30    1
    36    10    31    1
    37    12    32    1
    38    13    33    1
    39    15    34    1
    40    16    35    1
    41    17    36    1
    42    18    37    1
    43    23    38    1
    44    24    39    1
    45    25    40    1
