@<TRIPOS>MOLECULE
*****
 42 48 0 0 0
SMALL
GASTEIGER

@<TRIPOS>ATOM
      1 C          -1.2495    0.4178   -0.2487 C.3     1  UNL1        0.0000
      2 C          -2.3782   -0.4747    0.2611 C.2     1  UNL1        0.0000
      3 C          -1.8764   -1.5592    0.8850 C.2     1  UNL1        0.0000
      4 C          -0.4282   -1.4808    0.8426 C.ar    1  UNL1        0.0000
      5 N           0.3838   -2.4001    1.3722 N.ar    1  UNL1        0.0000
      6 C           1.7098   -2.1395    1.2254 C.ar    1  UNL1        0.0000
      7 C           2.2791   -1.0170    0.5821 C.ar    1  UNL1        0.0000
      8 C           3.7063   -0.7990    0.4603 C.ar    1  UNL1        0.0000
      9 SI          5.1492   -1.8805    1.0847 Si      1  UNL1        0.0000
     10 C           6.3690   -0.6370    0.3740 C.2     1  UNL1        0.0000
     11 C           5.7728    0.4080   -0.2275 C.2     1  UNL1        0.0000
     12 C           4.3181    0.3246   -0.1833 C.ar    1  UNL1        0.0000
     13 C           3.3874    1.2139   -0.6960 C.ar    1  UNL1        0.0000
     14 C           3.6268    2.3853   -1.3680 C.ar    1  UNL1        0.0000
     15 N           2.3998    2.9259   -1.6814 N.ar    1  UNL1        0.0000
     16 C           1.3851    2.1126   -1.2169 C.ar    1  UNL1        0.0000
     17 C           1.9699    1.0344   -0.5963 C.ar    1  UNL1        0.0000
     18 C           1.3347   -0.0752    0.0393 C.ar    1  UNL1        0.0000
     19 C          -0.0339   -0.3309    0.1831 C.ar    1  UNL1        0.0000
     20 C          -3.7903   -0.1098    0.0487 C.ar    1  UNL1        0.0000
     21 C          -4.1722    1.0843   -0.6180 C.ar    1  UNL1        0.0000
     22 C          -5.5117    1.4824   -0.8486 C.ar    1  UNL1        0.0000
     23 C          -6.6137    0.7249   -0.4352 C.ar    1  UNL1        0.0000
     24 C          -6.3190   -0.4824    0.2374 C.ar    1  UNL1        0.0000
     25 N          -7.2369   -1.3409    0.7075 N.ar    1  UNL1        0.0000
     26 S          -6.3982   -2.5875    1.4049 S.2     1  UNL1        0.0000
     27 N          -4.8407   -2.0968    1.1432 N.ar    1  UNL1        0.0000
     28 C          -4.8857   -0.9206    0.4908 C.ar    1  UNL1        0.0000
     29 H          -1.2855    1.4026    0.2283 H       1  UNL1        0.0000
     30 H          -1.2832    0.5038   -1.3396 H       1  UNL1        0.0000
     31 H          -2.3841   -2.3825    1.3573 H       1  UNL1        0.0000
     32 H           2.3349   -2.9101    1.6692 H       1  UNL1        0.0000
     33 H           5.2050   -3.1903    0.3904 H       1  UNL1        0.0000
     34 H           5.1995   -1.9414    2.5662 H       1  UNL1        0.0000
     35 H           7.4323   -0.7961    0.4680 H       1  UNL1        0.0000
     36 H           6.2929    1.2300   -0.6980 H       1  UNL1        0.0000
     37 H           4.5400    2.8885   -1.6547 H       1  UNL1        0.0000
     38 H           2.2622    3.7951   -2.1809 H       1  UNL1        0.0000
     39 H           0.3573    2.3978   -1.3831 H       1  UNL1        0.0000
     40 H          -3.4012    1.7606   -0.9882 H       1  UNL1        0.0000
     41 H          -5.6928    2.4219   -1.3719 H       1  UNL1        0.0000
     42 H          -7.6347    1.0382   -0.6164 H       1  UNL1        0.0000
@<TRIPOS>BOND
     1     1     2    1
     2     2     3    2
     3     3     4    1
     4     4     5   ar
     5     5     6   ar
     6     6     7   ar
     7     7     8   ar
     8     8     9    1
     9     9    10    1
    10    10    11    2
    11    11    12    1
    12    12    13   ar
    13    13    14   ar
    14    14    15   ar
    15    15    16   ar
    16    16    17   ar
    17    17    18   ar
    18    18    19   ar
    19     2    20    1
    20    20    21   ar
    21    21    22   ar
    22    22    23   ar
    23    23    24   ar
    24    24    25   ar
    25    25    26   ar
    26    26    27   ar
    27    27    28   ar
    28    19     1    1
    29    28    20   ar
    30    19     4   ar
    31    28    24   ar
    32    18     7   ar
    33    12     8   ar
    34    17    13   ar
    35     1    29    1
    36     1    30    1
    37     3    31    1
    38     6    32    1
    39     9    33    1
    40     9    34    1
    41    10    35    1
    42    11    36    1
    43    14    37    1
    44    15    38    1
    45    16    39    1
    46    21    40    1
    47    22    41    1
    48    23    42    1
