@<TRIPOS>MOLECULE
*****
 38 43 0 0 0
SMALL
GASTEIGER

@<TRIPOS>ATOM
      1 C           1.9365    0.0927    0.2100 C.3     1  UNL1        0.0000
      2 C           2.8376   -0.8179   -0.5962 C.2     1  UNL1        0.0000
      3 C           2.1394   -1.6876   -1.3499 C.2     1  UNL1        0.0000
      4 C           0.7334   -1.4300   -1.1098 C.ar    1  UNL1        0.0000
      5 N          -0.2558   -2.1103   -1.6947 N.ar    1  UNL1        0.0000
      6 C          -1.5062   -1.7146   -1.3354 C.ar    1  UNL1        0.0000
      7 C          -1.8335   -0.6810   -0.4276 C.ar    1  UNL1        0.0000
      8 C          -3.1924   -0.3095   -0.0884 C.ar    1  UNL1        0.0000
      9 SI         -4.8368   -1.0464   -0.7160 Si      1  UNL1        0.0000
     10 C          -5.7785    0.1741    0.3618 C.2     1  UNL1        0.0000
     11 C          -4.9748    0.9900    1.0673 C.2     1  UNL1        0.0000
     12 C          -3.5609    0.7302    0.8253 C.ar    1  UNL1        0.0000
     13 C          -2.4606    1.3698    1.3733 C.ar    1  UNL1        0.0000
     14 C          -2.4522    2.4020    2.2765 C.ar    1  UNL1        0.0000
     15 N          -1.1324    2.7046    2.5275 N.ar    1  UNL1        0.0000
     16 C          -0.3037    1.8777    1.7953 C.ar    1  UNL1        0.0000
     17 C          -1.1036    1.0324    1.0640 C.ar    1  UNL1        0.0000
     18 C          -0.7092    0.0019    0.1582 C.ar    1  UNL1        0.0000
     19 C           0.5842   -0.3934   -0.2012 C.ar    1  UNL1        0.0000
     20 C           4.2887   -0.7035   -0.5113 C.ar    1  UNL1        0.0000
     21 N           4.7791    0.2333    0.3032 N.ar    1  UNL1        0.0000
     22 C           6.1084    0.2886    0.3376 C.ar    1  UNL1        0.0000
     23 N           6.9444   -0.4857   -0.3487 N.ar    1  UNL1        0.0000
     24 C           6.3355   -1.3791   -1.1240 C.ar    1  UNL1        0.0000
     25 N           5.0215   -1.5393   -1.2504 N.ar    1  UNL1        0.0000
     26 H           2.0788    1.1399   -0.0752 H       1  UNL1        0.0000
     27 H           2.0930   -0.0494    1.2840 H       1  UNL1        0.0000
     28 H           2.5076   -2.4473   -2.0184 H       1  UNL1        0.0000
     29 H          -2.2820   -2.2917   -1.8322 H       1  UNL1        0.0000
     30 H          -5.0207   -2.4517   -0.2773 H       1  UNL1        0.0000
     31 H          -5.0404   -0.8002   -2.1647 H       1  UNL1        0.0000
     32 H          -6.8577    0.1761    0.3748 H       1  UNL1        0.0000
     33 H          -5.3155    1.7600    1.7446 H       1  UNL1        0.0000
     34 H          -3.2455    2.9509    2.7650 H       1  UNL1        0.0000
     35 H          -0.8148    3.4293    3.1583 H       1  UNL1        0.0000
     36 H           0.7673    1.9878    1.8804 H       1  UNL1        0.0000
     37 H           6.5525    1.0357    0.9866 H       1  UNL1        0.0000
     38 H           6.9692   -2.0383   -1.7074 H       1  UNL1        0.0000
@<TRIPOS>BOND
     1     1     2    1
     2     2     3    2
     3     3     4    1
     4     4     5   ar
     5     5     6   ar
     6     6     7   ar
     7     7     8   ar
     8     8     9    1
     9     9    10    1
    10    10    11    2
    11    11    12    1
    12    12    13   ar
    13    13    14   ar
    14    14    15   ar
    15    15    16   ar
    16    16    17   ar
    17    17    18   ar
    18    18    19   ar
    19     2    20    1
    20    20    21   ar
    21    21    22   ar
    22    22    23   ar
    23    23    24   ar
    24    24    25   ar
    25    19     1    1
    26    25    20   ar
    27    19     4   ar
    28    18     7   ar
    29    12     8   ar
    30    17    13   ar
    31     1    26    1
    32     1    27    1
    33     3    28    1
    34     6    29    1
    35     9    30    1
    36     9    31    1
    37    10    32    1
    38    11    33    1
    39    14    34    1
    40    15    35    1
    41    16    36    1
    42    22    37    1
    43    24    38    1
