@<TRIPOS>MOLECULE
*****
 44 50 0 0 0
SMALL
GASTEIGER

@<TRIPOS>ATOM
      1 SI          2.4827   -2.2290    2.7813 Si      1  UNL1        0.0000
      2 C           3.3905   -1.4203    1.3771 C.2     1  UNL1        0.0000
      3 C           2.5565   -0.7310    0.5678 C.ar    1  UNL1        0.0000
      4 C           3.0006    0.1340   -0.5572 C.ar    1  UNL1        0.0000
      5 C           2.0684    0.8978   -1.1823 C.ar    1  UNL1        0.0000
      6 C           0.7163    0.7646   -0.7720 C.ar    1  UNL1        0.0000
      7 N          -0.2840    1.5177   -1.3100 N.ar    1  UNL1        0.0000
      8 C          -1.4628    1.1042   -0.7663 C.ar    1  UNL1        0.0000
      9 C          -2.8696    1.6728   -1.0216 C.ar    1  UNL1        0.0000
     10 N          -3.2445    2.7375   -1.7830 N.ar    1  UNL1        0.0000
     11 C          -4.6051    2.8866   -1.6918 C.ar    1  UNL1        0.0000
     12 C          -5.0852    1.8882   -0.8677 C.ar    1  UNL1        0.0000
     13 C          -3.9777    1.1017   -0.4325 C.ar    1  UNL1        0.0000
     14 C          -3.7661   -0.0572    0.3664 C.ar    1  UNL1        0.0000
     15 C          -4.8983   -0.6918    0.9154 C.ar    1  UNL1        0.0000
     16 C          -4.7679   -1.8760    1.6389 C.ar    1  UNL1        0.0000
     17 C          -3.5148   -2.4558    1.8039 C.ar    1  UNL1        0.0000
     18 C          -2.3747   -1.8385    1.2792 C.ar    1  UNL1        0.0000
     19 C          -2.4478   -0.6105    0.5937 C.ar    1  UNL1        0.0000
     20 C          -1.2593    0.0264    0.0899 C.ar    1  UNL1        0.0000
     21 C           0.1678   -0.0800    0.1835 C.ar    1  UNL1        0.0000
     22 C           1.1087   -0.8185    0.9758 C.ar    1  UNL1        0.0000
     23 C           0.9068   -1.4786    2.1320 C.2     1  UNL1        0.0000
     24 C           4.3569    0.2329   -1.0286 C.ar    1  UNL1        0.0000
     25 C           5.0771    1.3405   -1.4763 C.ar    1  UNL1        0.0000
     26 C           6.3773    0.9111   -1.8326 C.ar    1  UNL1        0.0000
     27 C           6.4032   -0.4364   -1.5882 C.ar    1  UNL1        0.0000
     28 O           5.2091   -0.8525   -1.1061 O.2     1  UNL1        0.0000
     29 H           2.4815   -3.7093    2.6911 H       1  UNL1        0.0000
     30 H           2.8684   -1.6781    4.1030 H       1  UNL1        0.0000
     31 H           4.4652   -1.4787    1.3081 H       1  UNL1        0.0000
     32 H           2.3185    1.5525   -2.0103 H       1  UNL1        0.0000
     33 H          -0.1757    2.2446   -2.0018 H       1  UNL1        0.0000
     34 H          -2.6262    3.3320   -2.3160 H       1  UNL1        0.0000
     35 H          -5.1137    3.6816   -2.2202 H       1  UNL1        0.0000
     36 H          -6.1257    1.7381   -0.6127 H       1  UNL1        0.0000
     37 H          -5.8938   -0.2808    0.7701 H       1  UNL1        0.0000
     38 H          -5.6499   -2.3611    2.0484 H       1  UNL1        0.0000
     39 H          -3.4208   -3.4029    2.3291 H       1  UNL1        0.0000
     40 H          -1.4339   -2.3680    1.3640 H       1  UNL1        0.0000
     41 H          -0.0053   -1.5675    2.6947 H       1  UNL1        0.0000
     42 H           4.6994    2.3525   -1.5258 H       1  UNL1        0.0000
     43 H           7.1918    1.5096   -2.2145 H       1  UNL1        0.0000
     44 H           7.1561   -1.2045   -1.6960 H       1  UNL1        0.0000
@<TRIPOS>BOND
     1     1     2    1
     2     2     3    2
     3     3     4   ar
     4     4     5   ar
     5     5     6   ar
     6     6     7   ar
     7     7     8   ar
     8     8     9   ar
     9     9    10   ar
    10    10    11   ar
    11    11    12   ar
    12    12    13   ar
    13    13    14   ar
    14    14    15   ar
    15    15    16   ar
    16    16    17   ar
    17    17    18   ar
    18    18    19   ar
    19    19    20   ar
    20    20    21   ar
    21    21    22   ar
    22    22    23    2
    23     4    24    1
    24    24    25   ar
    25    25    26   ar
    26    26    27   ar
    27    27    28   ar
    28    23     1    1
    29    28    24   ar
    30    22     3   ar
    31    21     6   ar
    32    20     8   ar
    33    13     9   ar
    34    19    14   ar
    35     1    29    1
    36     1    30    1
    37     2    31    1
    38     5    32    1
    39     7    33    1
    40    10    34    1
    41    11    35    1
    42    12    36    1
    43    15    37    1
    44    16    38    1
    45    17    39    1
    46    18    40    1
    47    23    41    1
    48    25    42    1
    49    26    43    1
    50    27    44    1
