@<TRIPOS>MOLECULE
*****
 40 45 0 0 0
SMALL
GASTEIGER

@<TRIPOS>ATOM
      1 C           2.1761   -0.5353   -1.0397 C.3     1  UNL1        0.0038
      2 C           2.9238    0.1889    0.1218 C.2     1  UNL1       -0.0323
      3 C           2.0440    0.7120    1.0223 C.2     1  UNL1       -0.0149
      4 C           0.7494    0.3968    0.5586 C.ar    1  UNL1        0.1344
      5 O          -0.5182    0.6216    0.9833 O.2     1  UNL1       -0.4529
      6 C          -1.2926    0.0183    0.0214 C.ar    1  UNL1        0.1617
      7 C          -0.5276   -0.5503   -0.9485 C.ar    1  UNL1        0.0902
      8 N          -1.3700   -1.1225   -1.8563 N.ar    1  UNL1       -0.3513
      9 C          -2.6743   -0.9030   -1.4396 C.ar    1  UNL1        0.0511
     10 C          -3.8700   -1.3020   -2.0474 C.ar    1  UNL1       -0.0371
     11 C          -5.0751   -0.9543   -1.4238 C.ar    1  UNL1       -0.0521
     12 C          -5.1061   -0.2278   -0.2246 C.ar    1  UNL1       -0.0171
     13 C          -6.3175    0.1177    0.3954 C.ar    1  UNL1       -0.0540
     14 C          -6.3294    0.8424    1.5908 C.ar    1  UNL1       -0.0612
     15 C          -5.1321    1.2341    2.1868 C.ar    1  UNL1       -0.0611
     16 C          -3.9155    0.9035    1.5910 C.ar    1  UNL1       -0.0533
     17 C          -3.8933    0.1733    0.3860 C.ar    1  UNL1       -0.0052
     18 C          -2.6672   -0.1737   -0.2375 C.ar    1  UNL1        0.0503
     19 C           0.7966   -0.3114   -0.6111 C.ar    1  UNL1        0.0261
     20 C           4.3961    0.2594    0.1736 C.ar    1  UNL1       -0.0214
     21 C           5.1832   -0.3256   -0.8314 C.ar    1  UNL1       -0.0543
     22 C           6.5806   -0.2625   -0.7888 C.ar    1  UNL1       -0.0612
     23 C           7.2189    0.3879    0.2617 C.ar    1  UNL1       -0.0617
     24 C           6.4602    0.9746    1.2687 C.ar    1  UNL1       -0.0612
     25 C           5.0632    0.9103    1.2241 C.ar    1  UNL1       -0.0543
     26 H           2.3857   -0.0589   -2.0020 H       1  UNL1        0.0363
     27 H           2.4263   -1.6000   -1.0673 H       1  UNL1        0.0363
     28 H           2.2412    1.2653    1.9256 H       1  UNL1        0.0657
     29 H          -1.0667   -1.6170   -2.6844 H       1  UNL1        0.1660
     30 H          -3.8735   -1.8650   -2.9756 H       1  UNL1        0.0638
     31 H          -6.0070   -1.2632   -1.8942 H       1  UNL1        0.0624
     32 H          -7.2656   -0.1759   -0.0491 H       1  UNL1        0.0624
     33 H          -7.2765    1.1013    2.0571 H       1  UNL1        0.0618
     34 H          -5.1443    1.7975    3.1160 H       1  UNL1        0.0618
     35 H          -2.9881    1.2153    2.0663 H       1  UNL1        0.0624
     36 H           4.7299   -0.8442   -1.6717 H       1  UNL1        0.0624
     37 H           7.1682   -0.7230   -1.5789 H       1  UNL1        0.0618
     38 H           8.3039    0.4376    0.2959 H       1  UNL1        0.0618
     39 H           6.9521    1.4847    2.0931 H       1  UNL1        0.0618
     40 H           4.5113    1.3826    2.0323 H       1  UNL1        0.0624
@<TRIPOS>BOND
     1     1     2    1
     2     2     3    2
     3     3     4    1
     4     4     5   ar
     5     5     6   ar
     6     6     7   ar
     7     7     8   ar
     8     8     9   ar
     9     9    10   ar
    10    10    11   ar
    11    11    12   ar
    12    12    13   ar
    13    13    14   ar
    14    14    15   ar
    15    15    16   ar
    16    16    17   ar
    17    17    18   ar
    18     7    19   ar
    19     2    20    1
    20    20    21   ar
    21    21    22   ar
    22    22    23   ar
    23    23    24   ar
    24    24    25   ar
    25    19     1    1
    26    25    20   ar
    27    19     4   ar
    28    18     6   ar
    29    18     9   ar
    30    17    12   ar
    31     1    26    1
    32     1    27    1
    33     3    28    1
    34     8    29    1
    35    10    30    1
    36    11    31    1
    37    13    32    1
    38    14    33    1
    39    15    34    1
    40    16    35    1
    41    21    36    1
    42    22    37    1
    43    23    38    1
    44    24    39    1
    45    25    40    1
