@<TRIPOS>MOLECULE
*****
 33 38 0 0 0
SMALL
GASTEIGER

@<TRIPOS>ATOM
      1 C           0.2467   -0.3781   -1.5829 C.3     1  UNL1        0.0000
      2 C          -0.9082   -0.0661   -0.5579 C.2     1  UNL1        0.0000
      3 C          -0.3918    0.1942    0.6768 C.2     1  UNL1        0.0000
      4 C           1.0128    0.0866    0.5805 C.ar    1  UNL1        0.0000
      5 O           2.0615    0.2277    1.4469 O.2     1  UNL1        0.0000
      6 C           3.0895   -0.0300    0.6202 C.ar    1  UNL1        0.0000
      7 C           2.7901   -0.3163   -0.6679 C.ar    1  UNL1        0.0000
      8 N           4.0053   -0.5333   -1.2720 N.ar    1  UNL1        0.0000
      9 C           5.0190   -0.3779   -0.3520 C.ar    1  UNL1        0.0000
     10 C           6.3960   -0.3907   -0.0492 C.ar    1  UNL1        0.0000
     11 C           6.4264   -0.0720    1.3072 C.ar    1  UNL1        0.0000
     12 O           5.1802    0.1342    1.8571 O.2     1  UNL1        0.0000
     13 C           4.3986   -0.0682    0.7975 C.ar    1  UNL1        0.0000
     14 C           1.4044   -0.2404   -0.7037 C.ar    1  UNL1        0.0000
     15 C          -2.3149   -0.0463   -0.8328 C.ar    1  UNL1        0.0000
     16 S          -2.8407   -0.4087   -2.4680 S.2     1  UNL1        0.0000
     17 C          -4.5086   -0.2202   -2.1088 C.ar    1  UNL1        0.0000
     18 C          -4.6823    0.1076   -0.7952 C.ar    1  UNL1        0.0000
     19 C          -5.8910    0.3566   -0.0696 C.2     1  UNL1        0.0000
     20 C          -5.7199    0.6611    1.2337 C.2     1  UNL1        0.0000
     21 SI         -3.8760    0.6612    1.6990 Si      1  UNL1        0.0000
     22 C          -3.4443    0.2020   -0.0912 C.ar    1  UNL1        0.0000
     23 H           0.2562    0.3578   -2.3923 H       1  UNL1        0.0000
     24 H           0.1505   -1.3933   -1.9787 H       1  UNL1        0.0000
     25 H          -0.8900    0.4410    1.5966 H       1  UNL1        0.0000
     26 H           4.1369   -0.7717   -2.2460 H       1  UNL1        0.0000
     27 H           7.2421   -0.5936   -0.6884 H       1  UNL1        0.0000
     28 H           7.2413    0.0441    2.0098 H       1  UNL1        0.0000
     29 H          -5.2541   -0.3606   -2.8787 H       1  UNL1        0.0000
     30 H          -6.8655    0.3019   -0.5416 H       1  UNL1        0.0000
     31 H          -6.4818    0.8838    1.9631 H       1  UNL1        0.0000
     32 H          -3.4202    2.0176    2.0916 H       1  UNL1        0.0000
     33 H          -3.5681   -0.4100    2.6785 H       1  UNL1        0.0000
@<TRIPOS>BOND
     1     1     2    1
     2     2     3    2
     3     3     4    1
     4     4     5   ar
     5     5     6   ar
     6     6     7   ar
     7     7     8   ar
     8     8     9   ar
     9     9    10   ar
    10    10    11   ar
    11    11    12   ar
    12    12    13   ar
    13     7    14   ar
    14     2    15    1
    15    15    16   ar
    16    16    17   ar
    17    17    18   ar
    18    18    19    1
    19    19    20    2
    20    20    21    1
    21    21    22    1
    22    14     1    1
    23    22    15   ar
    24    14     4   ar
    25    22    18   ar
    26    13     6   ar
    27    13     9   ar
    28     1    23    1
    29     1    24    1
    30     3    25    1
    31     8    26    1
    32    10    27    1
    33    11    28    1
    34    17    29    1
    35    19    30    1
    36    20    31    1
    37    21    32    1
    38    21    33    1
