@<TRIPOS>MOLECULE
*****
 39 44 0 0 0
SMALL
GASTEIGER

@<TRIPOS>ATOM
      1 C           1.6999    0.1289   -0.6244 C.3     1  UNL1        0.0000
      2 C           2.6234    0.1396    0.6280 C.2     1  UNL1        0.0000
      3 C           1.9020   -0.0071    1.7721 C.2     1  UNL1        0.0000
      4 C           0.5525   -0.1167    1.3856 C.ar    1  UNL1        0.0000
      5 O          -0.6362   -0.2765    2.0203 O.2     1  UNL1        0.0000
      6 C          -1.5623   -0.3032    1.0152 C.ar    1  UNL1        0.0000
      7 C          -0.9758   -0.1635   -0.2323 C.ar    1  UNL1        0.0000
      8 C           0.3837   -0.0445    0.0196 C.ar    1  UNL1        0.0000
      9 C          -1.8047   -0.1707   -1.3859 C.ar    1  UNL1        0.0000
     10 C          -1.4120   -0.0482   -2.6674 C.2     1  UNL1        0.0000
     11 SI         -2.8739   -0.1181   -3.8236 Si      1  UNL1        0.0000
     12 C          -3.9900   -0.3263   -2.3307 C.2     1  UNL1        0.0000
     13 C          -3.2823   -0.3310   -1.1805 C.ar    1  UNL1        0.0000
     14 C          -3.8637   -0.4784    0.1948 C.ar    1  UNL1        0.0000
     15 C          -5.2278   -0.6303    0.4465 C.ar    1  UNL1        0.0000
     16 C          -5.6472   -0.7578    1.7636 C.ar    1  UNL1        0.0000
     17 N          -4.8188   -0.7452    2.8315 N.ar    1  UNL1        0.0000
     18 C          -3.4973   -0.5973    2.5754 C.ar    1  UNL1        0.0000
     19 C          -2.9752   -0.4622    1.2995 C.ar    1  UNL1        0.0000
     20 C           4.0824    0.2931    0.5127 C.ar    1  UNL1        0.0000
     21 C           4.9244    0.3048    1.6311 C.ar    1  UNL1        0.0000
     22 C           6.3039    0.4529    1.4792 C.ar    1  UNL1        0.0000
     23 C           6.8149    0.5873    0.2017 C.ar    1  UNL1        0.0000
     24 N           6.0504    0.5828   -0.9075 N.ar    1  UNL1        0.0000
     25 C           4.7138    0.4369   -0.7244 C.ar    1  UNL1        0.0000
     26 H           1.7583    1.0773   -1.1670 H       1  UNL1        0.0000
     27 H           1.9370   -0.7119   -1.2835 H       1  UNL1        0.0000
     28 H           2.2422   -0.0397    2.7942 H       1  UNL1        0.0000
     29 H          -0.4067    0.0757   -3.0354 H       1  UNL1        0.0000
     30 H          -2.8594   -1.3246   -4.6841 H       1  UNL1        0.0000
     31 H          -3.1071    1.1683   -4.5216 H       1  UNL1        0.0000
     32 H          -5.0545   -0.4234   -2.4637 H       1  UNL1        0.0000
     33 H          -5.9627   -0.6514   -0.3485 H       1  UNL1        0.0000
     34 H          -6.7008   -0.8780    2.0020 H       1  UNL1        0.0000
     35 H          -2.8564   -0.5909    3.4526 H       1  UNL1        0.0000
     36 H           4.5288    0.1997    2.6372 H       1  UNL1        0.0000
     37 H           6.9616    0.4628    2.3413 H       1  UNL1        0.0000
     38 H           7.8812    0.7052    0.0323 H       1  UNL1        0.0000
     39 H           4.1545    0.4414   -1.6555 H       1  UNL1        0.0000
@<TRIPOS>BOND
     1     1     2    1
     2     2     3    2
     3     3     4    1
     4     4     5   ar
     5     5     6   ar
     6     6     7   ar
     7     7     8   ar
     8     7     9   ar
     9     9    10    2
    10    10    11    1
    11    11    12    1
    12    12    13    2
    13    13    14   ar
    14    14    15   ar
    15    15    16   ar
    16    16    17   ar
    17    17    18   ar
    18    18    19   ar
    19     2    20    1
    20    20    21   ar
    21    21    22   ar
    22    22    23   ar
    23    23    24   ar
    24    24    25   ar
    25     8     1    1
    26    13     9   ar
    27    19    14   ar
    28    25    20   ar
    29     8     4   ar
    30    19     6   ar
    31     1    26    1
    32     1    27    1
    33     3    28    1
    34    10    29    1
    35    11    30    1
    36    11    31    1
    37    12    32    1
    38    15    33    1
    39    16    34    1
    40    18    35    1
    41    21    36    1
    42    22    37    1
    43    23    38    1
    44    25    39    1
