@<TRIPOS>MOLECULE
*****
 40 46 0 0 0
SMALL
GASTEIGER

@<TRIPOS>ATOM
      1 C          -1.8618    0.8249    0.0411 C.3     1  UNL1        0.0039
      2 C          -2.7600   -0.4329    0.0685 C.2     1  UNL1       -0.0141
      3 C          -2.0241   -1.5756    0.1132 C.2     1  UNL1       -0.0135
      4 C          -0.6734   -1.1784    0.1181 C.ar    1  UNL1        0.1330
      5 O           0.5310   -1.8054    0.1528 O.2     1  UNL1       -0.4544
      6 C           1.4897   -0.8047    0.1340 C.ar    1  UNL1        0.1464
      7 C           0.8217    0.4129    0.0879 C.ar    1  UNL1        0.0340
      8 C          -0.5318    0.1921    0.0775 C.ar    1  UNL1        0.0105
      9 C           1.6097    1.5819    0.0617 C.ar    1  UNL1        0.0110
     10 C           1.2320    2.8884    0.0164 C.ar    1  UNL1        0.0101
     11 N           2.4200    3.5908    0.0097 N.ar    1  UNL1       -0.3659
     12 C           3.4979    2.7176    0.0504 C.ar    1  UNL1        0.0100
     13 C           3.0076    1.4289    0.0841 C.ar    1  UNL1        0.0080
     14 C           3.7581    0.2256    0.1308 C.ar    1  UNL1       -0.0030
     15 C           5.1847    0.1429    0.1514 C.ar    1  UNL1       -0.0511
     16 C           5.8712   -1.0805    0.1980 C.ar    1  UNL1       -0.0329
     17 C           5.0799   -2.2556    0.2244 C.ar    1  UNL1        0.1006
     18 N           5.5645   -3.5065    0.2692 N.ar    1  UNL1       -0.1908
     19 S           4.2501   -4.5182    0.2838 S.2     1  UNL1        0.1165
     20 N           3.0123   -3.4213    0.2342 N.ar    1  UNL1       -0.1900
     21 C           3.5639   -2.1949    0.2033 C.ar    1  UNL1        0.1111
     22 C           2.8977   -0.9390    0.1560 C.ar    1  UNL1        0.0538
     23 C          -4.2232   -0.3668    0.0477 C.ar    1  UNL1        0.0674
     24 C          -4.9129    0.8423    0.0018 C.ar    1  UNL1       -0.0360
     25 C          -6.3072    0.8285   -0.0156 C.ar    1  UNL1       -0.0583
     26 C          -6.9776   -0.3865    0.0129 C.ar    1  UNL1       -0.0436
     27 C          -6.2214   -1.5431    0.0581 C.ar    1  UNL1        0.0282
     28 N          -4.8707   -1.5572    0.0759 N.ar    1  UNL1       -0.2553
     29 H          -2.0089    1.3982   -0.8792 H       1  UNL1        0.0363
     30 H          -2.0318    1.4538    0.9202 H       1  UNL1        0.0363
     31 H          -2.3802   -2.5941    0.1401 H       1  UNL1        0.0658
     32 H           0.2757    3.3911   -0.0112 H       1  UNL1        0.0813
     33 H           2.4971    4.5995   -0.0206 H       1  UNL1        0.1648
     34 H           4.5037    3.1148    0.0509 H       1  UNL1        0.0813
     35 H           5.7747    1.0579    0.1306 H       1  UNL1        0.0624
     36 H           6.9534   -1.1325    0.2133 H       1  UNL1        0.0640
     37 H          -4.3945    1.7939   -0.0207 H       1  UNL1        0.0639
     38 H          -6.8637    1.7608   -0.0513 H       1  UNL1        0.0619
     39 H          -8.0605   -0.4322    0.0004 H       1  UNL1        0.0633
     40 H          -6.6932   -2.5212    0.0820 H       1  UNL1        0.0830
@<TRIPOS>BOND
     1     1     2    1
     2     2     3    2
     3     3     4    1
     4     4     5   ar
     5     5     6   ar
     6     6     7   ar
     7     7     8   ar
     8     7     9   ar
     9     9    10   ar
    10    10    11   ar
    11    11    12   ar
    12    12    13   ar
    13    13    14   ar
    14    14    15   ar
    15    15    16   ar
    16    16    17   ar
    17    17    18   ar
    18    18    19   ar
    19    19    20   ar
    20    20    21   ar
    21    21    22   ar
    22     2    23    1
    23    23    24   ar
    24    24    25   ar
    25    25    26   ar
    26    26    27   ar
    27    27    28   ar
    28     8     1    1
    29    13     9   ar
    30    22    14   ar
    31    28    23   ar
    32     8     4   ar
    33    21    17   ar
    34    22     6   ar
    35     1    29    1
    36     1    30    1
    37     3    31    1
    38    10    32    1
    39    11    33    1
    40    12    34    1
    41    15    35    1
    42    16    36    1
    43    24    37    1
    44    25    38    1
    45    26    39    1
    46    27    40    1
