@<TRIPOS>MOLECULE
*****
 32 37 0 0 0
SMALL
GASTEIGER

@<TRIPOS>ATOM
      1 C           2.1817    1.1021    0.1148 C.3     1  UNL1        0.0030
      2 C           2.9485   -0.2572    0.2065 C.2     1  UNL1       -0.0242
      3 C           2.0710   -1.2939    0.3028 C.2     1  UNL1       -0.0144
      4 C           0.7784   -0.7371    0.2828 C.ar    1  UNL1        0.1330
      5 O          -0.4848   -1.2054    0.3420 O.2     1  UNL1       -0.4543
      6 C          -1.3038   -0.1009    0.2711 C.ar    1  UNL1        0.1487
      7 C          -0.5419    1.0689    0.1665 C.ar    1  UNL1        0.0430
      8 C          -1.2125    2.2845    0.0843 C.ar    1  UNL1        0.0393
      9 N          -2.5721    2.3207    0.1060 N.ar    1  UNL1       -0.2541
     10 C          -3.2965    1.1940    0.2066 C.ar    1  UNL1        0.0767
     11 C          -4.6949    1.3119    0.2227 C.ar    1  UNL1       -0.0335
     12 C          -5.6007    0.2336    0.3228 C.ar    1  UNL1       -0.0315
     13 C          -5.0247   -1.0526    0.4122 C.ar    1  UNL1        0.1007
     14 N          -5.6992   -2.2069    0.5140 N.ar    1  UNL1       -0.1908
     15 S          -4.5576   -3.4101    0.5867 S.2     1  UNL1        0.1165
     16 N          -3.1633   -2.5188    0.4923 N.ar    1  UNL1       -0.1900
     17 C          -3.5264   -1.2276    0.3987 C.ar    1  UNL1        0.1126
     18 C          -2.6927   -0.0844    0.2949 C.ar    1  UNL1        0.0713
     19 C           0.7856    0.6297    0.1766 C.ar    1  UNL1        0.0113
     20 C           4.3679   -0.4247    0.1939 C.ar    1  UNL1        0.0352
     21 C           5.3488    0.5551    0.1005 C.ar    1  UNL1        0.0422
     22 N           6.6629    0.1306    0.1098 N.ar    1  UNL1       -0.2551
     23 C           6.6868   -1.1775    0.2106 C.ar    1  UNL1        0.0652
     24 S           5.1668   -1.9554    0.2980 S.2     1  UNL1       -0.0758
     25 H           2.4329    1.7460    0.9628 H       1  UNL1        0.0363
     26 H           2.4005    1.6068   -0.8309 H       1  UNL1        0.0363
     27 H           2.2670   -2.3519    0.3814 H       1  UNL1        0.0657
     28 H          -0.7085    3.2409    0.0009 H       1  UNL1        0.0837
     29 H          -5.1135    2.3178    0.1522 H       1  UNL1        0.0640
     30 H          -6.6739    0.3810    0.3307 H       1  UNL1        0.0640
     31 H           5.1556    1.6185    0.0217 H       1  UNL1        0.0841
     32 H           7.6124   -1.7377    0.2373 H       1  UNL1        0.0907
@<TRIPOS>BOND
     1     1     2    1
     2     2     3    2
     3     3     4    1
     4     4     5   ar
     5     5     6   ar
     6     6     7   ar
     7     7     8   ar
     8     8     9   ar
     9     9    10   ar
    10    10    11   ar
    11    11    12   ar
    12    12    13   ar
    13    13    14   ar
    14    14    15   ar
    15    15    16   ar
    16    16    17   ar
    17    17    18   ar
    18     7    19   ar
    19     2    20    1
    20    20    21   ar
    21    21    22   ar
    22    22    23   ar
    23    23    24   ar
    24    19     1    1
    25    24    20   ar
    26    19     4   ar
    27    18     6   ar
    28    18    10   ar
    29    17    13   ar
    30     1    25    1
    31     1    26    1
    32     3    27    1
    33     8    28    1
    34    11    29    1
    35    12    30    1
    36    21    31    1
    37    23    32    1
