@<TRIPOS>MOLECULE
*****
 38 43 0 0 0
SMALL
GASTEIGER

@<TRIPOS>ATOM
      1 C          -0.7213   -1.2143    0.6617 C.3     1  UNL1        0.0025
      2 C          -1.6090    0.0002    0.2888 C.2     1  UNL1       -0.0316
      3 C          -0.8655    1.0593   -0.1238 C.2     1  UNL1       -0.0150
      4 C           0.4768    0.6389   -0.0765 C.ar    1  UNL1        0.1330
      5 O           1.6807    1.1821   -0.3545 O.2     1  UNL1       -0.4544
      6 C           2.6067    0.1982   -0.0816 C.ar    1  UNL1        0.1465
      7 C           1.9776   -0.9662    0.3700 C.ar    1  UNL1        0.0429
      8 C           2.7752   -2.0600    0.6910 C.ar    1  UNL1        0.0393
      9 N           4.1267   -1.9848    0.5648 N.ar    1  UNL1       -0.2541
     10 C           4.7154   -0.8526    0.1272 C.ar    1  UNL1        0.0745
     11 C           6.0965   -0.7901    0.0028 C.ar    1  UNL1       -0.0356
     12 C           6.7486    0.3671   -0.4482 C.ar    1  UNL1       -0.0597
     13 C           6.0141    1.5018   -0.7883 C.ar    1  UNL1       -0.0610
     14 C           4.6283    1.4803   -0.6778 C.ar    1  UNL1       -0.0490
     15 C           3.9974    0.3057   -0.2224 C.ar    1  UNL1        0.0432
     16 C           0.6147   -0.6547    0.3639 C.ar    1  UNL1        0.0113
     17 C          -3.0543   -0.0578    0.4273 C.ar    1  UNL1       -0.0107
     18 C          -3.7414   -0.7155    1.4820 C.ar    1  UNL1       -0.0536
     19 C          -5.1768   -0.7763    1.6108 C.ar    1  UNL1       -0.0605
     20 C          -6.0837   -0.1987    0.6949 C.ar    1  UNL1       -0.0510
     21 C          -5.3926    0.4204   -0.3362 C.ar    1  UNL1        0.0204
     22 C          -5.9394    1.0593   -1.4159 C.ar    1  UNL1        0.0994
     23 O          -4.9383    1.5102   -2.2305 O.2     1  UNL1       -0.4698
     24 C          -3.7471    1.1529   -1.6582 C.ar    1  UNL1        0.1000
     25 C          -3.9716    0.4943   -0.4748 C.ar    1  UNL1        0.0272
     26 H          -0.9502   -2.0774    0.0295 H       1  UNL1        0.0363
     27 H          -0.8159   -1.4741    1.7200 H       1  UNL1        0.0363
     28 H          -1.1948    2.0439   -0.4157 H       1  UNL1        0.0657
     29 H           2.3790   -3.0035    1.0482 H       1  UNL1        0.0837
     30 H           6.6856   -1.6663    0.2637 H       1  UNL1        0.0639
     31 H           7.8327    0.3756   -0.5318 H       1  UNL1        0.0618
     32 H           6.5211    2.3975   -1.1375 H       1  UNL1        0.0618
     33 H           4.0429    2.3578   -0.9395 H       1  UNL1        0.0625
     34 H          -3.1608   -1.1976    2.2696 H       1  UNL1        0.0624
     35 H          -5.5852   -1.3034    2.4746 H       1  UNL1        0.0618
     36 H          -7.1578   -0.2543    0.7985 H       1  UNL1        0.0625
     37 H          -6.9446    1.2658   -1.7546 H       1  UNL1        0.1035
     38 H          -2.8698    1.4363   -2.2218 H       1  UNL1        0.1036
@<TRIPOS>BOND
     1     1     2    1
     2     2     3    2
     3     3     4    1
     4     4     5   ar
     5     5     6   ar
     6     6     7   ar
     7     7     8   ar
     8     8     9   ar
     9     9    10   ar
    10    10    11   ar
    11    11    12   ar
    12    12    13   ar
    13    13    14   ar
    14    14    15   ar
    15     7    16   ar
    16     2    17    1
    17    17    18   ar
    18    18    19   ar
    19    19    20   ar
    20    20    21   ar
    21    21    22   ar
    22    22    23   ar
    23    23    24   ar
    24    24    25   ar
    25    16     1    1
    26    25    17   ar
    27    16     4   ar
    28    25    21   ar
    29    15     6   ar
    30    15    10   ar
    31     1    26    1
    32     1    27    1
    33     3    28    1
    34     8    29    1
    35    11    30    1
    36    12    31    1
    37    13    32    1
    38    14    33    1
    39    18    34    1
    40    19    35    1
    41    20    36    1
    42    22    37    1
    43    24    38    1
