@<TRIPOS>MOLECULE
*****
 37 42 0 0 0
SMALL
GASTEIGER

@<TRIPOS>ATOM
      1 C           0.6888    0.3771   -0.9524 C.3     1  UNL1        0.0000
      2 C           1.4157   -0.4128    0.1587 C.2     1  UNL1        0.0000
      3 C           0.5548   -0.9811    1.0395 C.2     1  UNL1        0.0000
      4 C          -0.7336   -0.6164    0.6052 C.ar    1  UNL1        0.0000
      5 O          -2.0014   -0.8350    1.0163 O.2     1  UNL1        0.0000
      6 C          -2.8006   -0.1774    0.1141 C.ar    1  UNL1        0.0000
      7 C          -4.1717   -0.1107    0.1179 C.ar    1  UNL1        0.0000
      8 SI         -5.4099   -0.8128    1.2366 Si      1  UNL1        0.0000
      9 C          -6.7403   -0.0042    0.1515 C.2     1  UNL1        0.0000
     10 C          -6.2082    0.6763   -0.8833 C.2     1  UNL1        0.0000
     11 C          -4.7379    0.6267   -0.9192 C.ar    1  UNL1        0.0000
     12 N          -4.0554    1.2577   -1.8926 N.ar    1  UNL1        0.0000
     13 C          -2.6972    1.1792   -1.8779 C.ar    1  UNL1        0.0000
     14 C          -2.0354    0.4604   -0.8752 C.ar    1  UNL1        0.0000
     15 C          -0.7136    0.1589   -0.5312 C.ar    1  UNL1        0.0000
     16 C           2.8571   -0.5554    0.1863 C.ar    1  UNL1        0.0000
     17 C           3.5234   -1.7921    0.0109 C.ar    1  UNL1        0.0000
     18 C           4.9480   -1.9403    0.0147 C.ar    1  UNL1        0.0000
     19 C           5.8511   -0.8721    0.2008 C.ar    1  UNL1        0.0000
     20 C           5.1903    0.3416    0.3911 C.ar    1  UNL1        0.0000
     21 C           5.8649    1.5168    0.6115 C.ar    1  UNL1        0.0000
     22 S           4.7755    2.8251    0.8411 S.2     1  UNL1        0.0000
     23 C           3.3988    1.8109    0.6498 C.ar    1  UNL1        0.0000
     24 C           3.7542    0.5076    0.3880 C.ar    1  UNL1        0.0000
     25 H           0.9474    1.4387   -0.9429 H       1  UNL1        0.0000
     26 H           0.8876   -0.0564   -1.9371 H       1  UNL1        0.0000
     27 H           0.7801   -1.5943    1.8978 H       1  UNL1        0.0000
     28 H          -5.4277   -0.2251    2.5996 H       1  UNL1        0.0000
     29 H          -5.5317   -2.2915    1.1870 H       1  UNL1        0.0000
     30 H          -7.7877   -0.1121    0.3867 H       1  UNL1        0.0000
     31 H          -6.7597    1.2194   -1.6370 H       1  UNL1        0.0000
     32 H          -2.1781    1.6982   -2.6756 H       1  UNL1        0.0000
     33 H           2.9257   -2.6908   -0.1492 H       1  UNL1        0.0000
     34 H           5.3565   -2.9404   -0.1365 H       1  UNL1        0.0000
     35 H           6.9247   -1.0069    0.2022 H       1  UNL1        0.0000
     36 H           6.9313    1.6889    0.6607 H       1  UNL1        0.0000
     37 H           2.4141    2.2443    0.7509 H       1  UNL1        0.0000
@<TRIPOS>BOND
     1     1     2    1
     2     2     3    2
     3     3     4    1
     4     4     5   ar
     5     5     6   ar
     6     6     7   ar
     7     7     8    1
     8     8     9    1
     9     9    10    2
    10    10    11    1
    11    11    12   ar
    12    12    13   ar
    13    13    14   ar
    14    14    15   ar
    15     2    16    1
    16    16    17   ar
    17    17    18   ar
    18    18    19   ar
    19    19    20   ar
    20    20    21   ar
    21    21    22   ar
    22    22    23   ar
    23    23    24   ar
    24    15     1    1
    25    24    16   ar
    26    15     4   ar
    27    24    20   ar
    28    14     6   ar
    29    11     7   ar
    30     1    25    1
    31     1    26    1
    32     3    27    1
    33     8    28    1
    34     8    29    1
    35     9    30    1
    36    10    31    1
    37    13    32    1
    38    17    33    1
    39    18    34    1
    40    19    35    1
    41    21    36    1
    42    23    37    1
