@<TRIPOS>MOLECULE
*****
 44 50 0 0 0
SMALL
GASTEIGER

@<TRIPOS>ATOM
      1 C           2.3552    0.1656   -0.4808 C.3     1  UNL1        0.0000
      2 C           2.9967   -0.9012    0.4394 C.2     1  UNL1        0.0000
      3 C           2.0482   -1.5265    1.1851 C.2     1  UNL1        0.0000
      4 C           0.8066   -0.9571    0.8344 C.ar    1  UNL1        0.0000
      5 S          -0.7601   -1.2347    1.3443 S.2     1  UNL1        0.0000
      6 C          -1.4231   -0.0022    0.2697 C.ar    1  UNL1        0.0000
      7 C          -0.3262    0.5429   -0.4229 C.ar    1  UNL1        0.0000
      8 C           0.9240    0.0175   -0.1158 C.ar    1  UNL1        0.0000
      9 C          -0.5903    1.5731   -1.3664 C.ar    1  UNL1        0.0000
     10 C           0.2450    2.2802   -2.1730 C.ar    1  UNL1        0.0000
     11 O          -0.5241    3.1583   -2.8921 O.2     1  UNL1        0.0000
     12 C          -1.8287    2.9691   -2.5072 C.ar    1  UNL1        0.0000
     13 C          -1.9137    1.9815   -1.5498 C.ar    1  UNL1        0.0000
     14 C          -3.0514    1.4959   -0.9076 C.ar    1  UNL1        0.0000
     15 C          -4.3941    2.0155   -1.1939 C.ar    1  UNL1        0.0000
     16 C          -5.4662    1.5233   -0.5555 C.ar    1  UNL1        0.0000
     17 C          -5.3142    0.4722    0.4252 C.ar    1  UNL1        0.0000
     18 C          -6.3578   -0.0556    1.0930 C.2     1  UNL1        0.0000
     19 SI         -5.8025   -1.3802    2.2715 Si      1  UNL1        0.0000
     20 C          -4.0481   -1.0664    1.6967 C.2     1  UNL1        0.0000
     21 C          -3.9755   -0.0969    0.7593 C.ar    1  UNL1        0.0000
     22 C          -2.7768    0.4515    0.0476 C.ar    1  UNL1        0.0000
     23 C           4.4500   -1.1506    0.4516 C.ar    1  UNL1        0.0000
     24 C           5.3145   -0.4214   -0.3808 C.ar    1  UNL1        0.0000
     25 C           6.6947   -0.6520   -0.3750 C.ar    1  UNL1        0.0000
     26 C           7.2382   -1.6180    0.4649 C.ar    1  UNL1        0.0000
     27 C           6.4018   -2.3526    1.2983 C.ar    1  UNL1        0.0000
     28 C           5.0219   -2.1205    1.2909 C.ar    1  UNL1        0.0000
     29 H           2.7240    1.1680   -0.2419 H       1  UNL1        0.0000
     30 H           2.5220   -0.0700   -1.5365 H       1  UNL1        0.0000
     31 H           2.1756   -2.3105    1.9150 H       1  UNL1        0.0000
     32 H           1.3060    2.3124   -2.3698 H       1  UNL1        0.0000
     33 H          -2.5420    3.6089   -3.0071 H       1  UNL1        0.0000
     34 H          -4.5187    2.8031   -1.9270 H       1  UNL1        0.0000
     35 H          -6.4591    1.9071   -0.7666 H       1  UNL1        0.0000
     36 H          -7.3976    0.2141    0.9981 H       1  UNL1        0.0000
     37 H          -6.0100   -1.0045    3.6909 H       1  UNL1        0.0000
     38 H          -6.2924   -2.7264    1.8885 H       1  UNL1        0.0000
     39 H          -3.2686   -1.6566    2.1383 H       1  UNL1        0.0000
     40 H           4.9365    0.3433   -1.0539 H       1  UNL1        0.0000
     41 H           7.3433   -0.0744   -1.0288 H       1  UNL1        0.0000
     42 H           8.3099   -1.7978    0.4702 H       1  UNL1        0.0000
     43 H           6.8195   -3.1093    1.9575 H       1  UNL1        0.0000
     44 H           4.4074   -2.7180    1.9586 H       1  UNL1        0.0000
@<TRIPOS>BOND
     1     1     2    1
     2     2     3    2
     3     3     4    1
     4     4     5   ar
     5     5     6   ar
     6     6     7   ar
     7     7     8   ar
     8     7     9   ar
     9     9    10   ar
    10    10    11   ar
    11    11    12   ar
    12    12    13   ar
    13    13    14   ar
    14    14    15   ar
    15    15    16   ar
    16    16    17   ar
    17    17    18    2
    18    18    19    1
    19    19    20    1
    20    20    21    2
    21    21    22   ar
    22     2    23    1
    23    23    24   ar
    24    24    25   ar
    25    25    26   ar
    26    26    27   ar
    27    27    28   ar
    28     8     1    1
    29    13     9   ar
    30    22    14   ar
    31    28    23   ar
    32     8     4   ar
    33    21    17   ar
    34    22     6   ar
    35     1    29    1
    36     1    30    1
    37     3    31    1
    38    10    32    1
    39    12    33    1
    40    15    34    1
    41    16    35    1
    42    18    36    1
    43    19    37    1
    44    19    38    1
    45    20    39    1
    46    24    40    1
    47    25    41    1
    48    26    42    1
    49    27    43    1
    50    28    44    1
