@<TRIPOS>MOLECULE
*****
 40 46 0 0 0
SMALL
GASTEIGER

@<TRIPOS>ATOM
      1 C           2.8451   -0.9794    0.2183 C.3     1  UNL1        0.0000
      2 C           3.7466    0.2678    0.0738 C.2     1  UNL1        0.0000
      3 C           2.9941    1.3818   -0.1201 C.2     1  UNL1        0.0000
      4 C           1.6451    0.9747   -0.1168 C.ar    1  UNL1        0.0000
      5 S           0.2101    1.8027   -0.2975 S.2     1  UNL1        0.0000
      6 C          -0.7608    0.3396   -0.1246 C.ar    1  UNL1        0.0000
      7 C           0.1437   -0.7200    0.0677 C.ar    1  UNL1        0.0000
      8 C           1.4964   -0.3706    0.0733 C.ar    1  UNL1        0.0000
      9 C          -0.3845   -2.0435    0.2386 C.ar    1  UNL1        0.0000
     10 C           0.3542   -3.1756    0.4347 C.ar    1  UNL1        0.0000
     11 S          -0.7010   -4.5225    0.5866 S.2     1  UNL1        0.0000
     12 C          -2.0989   -3.5320    0.3835 C.ar    1  UNL1        0.0000
     13 C          -1.7908   -2.1970    0.2018 C.ar    1  UNL1        0.0000
     14 C          -2.7393   -1.1777    0.0134 C.ar    1  UNL1        0.0000
     15 C          -4.1878   -1.4490   -0.0086 C.ar    1  UNL1        0.0000
     16 C          -5.0770   -0.4620   -0.1899 C.ar    1  UNL1        0.0000
     17 C          -4.6298    0.8979   -0.3684 C.ar    1  UNL1        0.0000
     18 C          -5.4821    1.9240   -0.5533 C.2     1  UNL1        0.0000
     19 SI         -4.5699    3.5294   -0.7471 Si      1  UNL1        0.0000
     20 C          -2.9747    2.5702   -0.5404 C.2     1  UNL1        0.0000
     21 C          -3.1807    1.2477   -0.3577 C.ar    1  UNL1        0.0000
     22 C          -2.1861    0.1422   -0.1554 C.ar    1  UNL1        0.0000
     23 C           5.1678    0.3602    0.1194 C.ar    1  UNL1        0.0000
     24 N           5.8876    1.4610   -0.0112 N.ar    1  UNL1        0.0000
     25 C           7.2354    1.1814    0.0855 C.ar    1  UNL1        0.0000
     26 C           7.5524   -0.1405    0.2915 C.ar    1  UNL1        0.0000
     27 S           6.1192   -1.0701    0.3677 S.2     1  UNL1        0.0000
     28 H           3.0482   -1.7007   -0.5792 H       1  UNL1        0.0000
     29 H           2.9740   -1.4408    1.2022 H       1  UNL1        0.0000
     30 H           3.3466    2.3954   -0.2533 H       1  UNL1        0.0000
     31 H           1.4210   -3.3213    0.5008 H       1  UNL1        0.0000
     32 H          -3.0622   -4.0191    0.4140 H       1  UNL1        0.0000
     33 H          -4.5510   -2.4600    0.1228 H       1  UNL1        0.0000
     34 H          -6.1414   -0.6734   -0.2044 H       1  UNL1        0.0000
     35 H          -6.5588    1.8793   -0.5923 H       1  UNL1        0.0000
     36 H          -4.8184    4.4660    0.3753 H       1  UNL1        0.0000
     37 H          -4.7131    4.1066   -2.1055 H       1  UNL1        0.0000
     38 H          -2.0592    3.1275   -0.5821 H       1  UNL1        0.0000
     39 H           7.9511    1.9897   -0.0027 H       1  UNL1        0.0000
     40 H           8.5289   -0.5900    0.3976 H       1  UNL1        0.0000
@<TRIPOS>BOND
     1     1     2    1
     2     2     3    2
     3     3     4    1
     4     4     5   ar
     5     5     6   ar
     6     6     7   ar
     7     7     8   ar
     8     7     9   ar
     9     9    10   ar
    10    10    11   ar
    11    11    12   ar
    12    12    13   ar
    13    13    14   ar
    14    14    15   ar
    15    15    16   ar
    16    16    17   ar
    17    17    18    2
    18    18    19    1
    19    19    20    1
    20    20    21    2
    21    21    22   ar
    22     2    23    1
    23    23    24   ar
    24    24    25   ar
    25    25    26   ar
    26    26    27   ar
    27     8     1    1
    28    13     9   ar
    29    22    14   ar
    30    27    23   ar
    31     8     4   ar
    32    21    17   ar
    33    22     6   ar
    34     1    28    1
    35     1    29    1
    36     3    30    1
    37    10    31    1
    38    12    32    1
    39    15    33    1
    40    16    34    1
    41    18    35    1
    42    19    36    1
    43    19    37    1
    44    20    38    1
    45    25    39    1
    46    26    40    1
