@<TRIPOS>MOLECULE
*****
 38 44 0 0 0
SMALL
GASTEIGER

@<TRIPOS>ATOM
      1 C          -1.1740   -0.3983   -0.0659 C.3     1  UNL1        0.0004
      2 C          -2.1186    0.5860    0.6912 C.2     1  UNL1       -0.0261
      3 C          -1.4007    1.6148    1.2195 C.2     1  UNL1       -0.0431
      4 C          -0.0487    1.4025    0.8795 C.ar    1  UNL1        0.0172
      5 S           1.3578    2.2560    1.1930 S.2     1  UNL1       -0.0879
      6 C           2.3358    1.0816    0.3136 C.ar    1  UNL1        0.0301
      7 C           1.4834    0.0914   -0.1702 C.ar    1  UNL1        0.0220
      8 C           0.1370    0.2649    0.1444 C.ar    1  UNL1       -0.0190
      9 C           2.0276   -0.9947   -0.9281 C.ar    1  UNL1        0.1090
     10 N           1.2730   -1.9685   -1.4166 N.ar    1  UNL1       -0.1901
     11 S           2.3916   -2.9420   -2.1928 S.2     1  UNL1        0.1165
     12 N           3.8011   -2.0957   -1.8840 N.ar    1  UNL1       -0.1901
     13 C           3.4596   -1.0085   -1.1567 C.ar    1  UNL1        0.1082
     14 C           4.3397    0.0039   -0.6635 C.ar    1  UNL1        0.0114
     15 C           5.7316   -0.0183   -0.8911 C.ar    1  UNL1       -0.0519
     16 C           6.5378    0.9991   -0.3835 C.ar    1  UNL1       -0.0611
     17 C           5.9711    2.0410    0.3504 C.ar    1  UNL1       -0.0611
     18 C           4.5927    2.0777    0.5850 C.ar    1  UNL1       -0.0529
     19 C           3.7517    1.0624    0.0840 C.ar    1  UNL1       -0.0014
     20 C          -3.5420    0.4565    0.8302 C.ar    1  UNL1        0.0432
     21 S          -4.5075    1.6113    1.7030 S.2     1  UNL1       -0.0926
     22 C          -5.9727    0.7805    1.4097 C.ar    1  UNL1        0.0038
     23 C          -5.7620   -0.3499    0.6692 C.ar    1  UNL1        0.0968
     24 N          -6.7698   -1.1883    0.3003 N.ar    1  UNL1       -0.2514
     25 C          -6.2851   -2.2307   -0.4275 C.ar    1  UNL1        0.0464
     26 C          -4.9390   -2.4249   -0.7576 C.ar    1  UNL1        0.0464
     27 N          -3.9165   -1.6011   -0.4001 N.ar    1  UNL1       -0.2508
     28 C          -4.3702   -0.5405    0.3343 C.ar    1  UNL1        0.1036
     29 H          -1.4333   -0.4479   -1.1277 H       1  UNL1        0.0362
     30 H          -1.1996   -1.3920    0.3915 H       1  UNL1        0.0362
     31 H          -1.7529    2.4566    1.7966 H       1  UNL1        0.0632
     32 H           6.1828   -0.8271   -1.4625 H       1  UNL1        0.0624
     33 H           7.6105    0.9799   -0.5603 H       1  UNL1        0.0618
     34 H           6.6059    2.8319    0.7438 H       1  UNL1        0.0618
     35 H           4.1911    2.9076    1.1618 H       1  UNL1        0.0624
     36 H          -6.9113    1.1560    1.7903 H       1  UNL1        0.0715
     37 H          -7.0354   -2.9437   -0.7579 H       1  UNL1        0.0845
     38 H          -4.6423   -3.2896   -1.3450 H       1  UNL1        0.0845
@<TRIPOS>BOND
     1     1     2    1
     2     2     3    2
     3     3     4    1
     4     4     5   ar
     5     5     6   ar
     6     6     7   ar
     7     7     8   ar
     8     7     9   ar
     9     9    10   ar
    10    10    11   ar
    11    11    12   ar
    12    12    13   ar
    13    13    14   ar
    14    14    15   ar
    15    15    16   ar
    16    16    17   ar
    17    17    18   ar
    18    18    19   ar
    19     2    20    1
    20    20    21   ar
    21    21    22   ar
    22    22    23   ar
    23    23    24   ar
    24    24    25   ar
    25    25    26   ar
    26    26    27   ar
    27    27    28   ar
    28     8     1    1
    29    13     9   ar
    30    19    14   ar
    31    28    20   ar
    32     8     4   ar
    33    28    23   ar
    34    19     6   ar
    35     1    29    1
    36     1    30    1
    37     3    31    1
    38    15    32    1
    39    16    33    1
    40    17    34    1
    41    18    35    1
    42    22    36    1
    43    25    37    1
    44    26    38    1
