@<TRIPOS>MOLECULE
*****
 36 41 0 0 0
SMALL
GASTEIGER

@<TRIPOS>ATOM
      1 SI         -1.9446   -2.9009    2.1135 Si      1  UNL1        0.0000
      2 C          -2.6233   -1.4504    1.1389 C.2     1  UNL1        0.0000
      3 C          -1.6314   -0.7203    0.5829 C.ar    1  UNL1        0.0000
      4 C          -1.8186    0.4939   -0.2668 C.ar    1  UNL1        0.0000
      5 C          -0.7267    1.0927   -0.8165 C.ar    1  UNL1        0.0000
      6 C           0.5508    0.5403   -0.5257 C.ar    1  UNL1        0.0000
      7 N           1.7296    1.0718   -1.0200 N.ar    1  UNL1        0.0000
      8 C           2.6739    0.2667   -0.5052 C.ar    1  UNL1        0.0000
      9 C           3.9836    0.1602   -0.5402 C.ar    1  UNL1        0.0000
     10 N           5.0143    0.7978   -1.1021 N.ar    1  UNL1        0.0000
     11 C           6.1247    0.0791   -0.6672 C.ar    1  UNL1        0.0000
     12 C           5.7402   -0.9883    0.1554 C.ar    1  UNL1        0.0000
     13 C           4.3382   -0.8875    0.2031 C.ar    1  UNL1        0.0000
     14 O           3.2308   -1.4751    0.7335 O.2     1  UNL1        0.0000
     15 C           2.1992   -0.7200    0.2651 C.ar    1  UNL1        0.0000
     16 C           0.8104   -0.5754    0.2774 C.ar    1  UNL1        0.0000
     17 C          -0.2671   -1.2678    0.8709 C.ar    1  UNL1        0.0000
     18 C          -0.2262   -2.3690    1.6409 C.2     1  UNL1        0.0000
     19 C          -3.0743    1.1116   -0.5447 C.ar    1  UNL1        0.0000
     20 C          -3.7449    1.4530   -1.7040 C.ar    1  UNL1        0.0000
     21 C          -4.9635    2.0714   -1.3313 C.ar    1  UNL1        0.0000
     22 C          -5.0035    2.1016    0.0442 C.ar    1  UNL1        0.0000
     23 N          -3.8528    1.5217    0.5127 N.ar    1  UNL1        0.0000
     24 H          -2.2118   -2.7570    3.5652 H       1  UNL1        0.0000
     25 H          -2.3319   -4.2037    1.5213 H       1  UNL1        0.0000
     26 H          -3.6864   -1.2926    1.0547 H       1  UNL1        0.0000
     27 H          -0.8107    1.9800   -1.4362 H       1  UNL1        0.0000
     28 H           1.8700    1.8707   -1.6238 H       1  UNL1        0.0000
     29 H           4.9788    1.6120   -1.7020 H       1  UNL1        0.0000
     30 H           7.1120    0.3907   -0.9841 H       1  UNL1        0.0000
     31 H           6.3827   -1.7123    0.6343 H       1  UNL1        0.0000
     32 H           0.6548   -2.9119    1.9464 H       1  UNL1        0.0000
     33 H          -3.3960    1.2671   -2.7117 H       1  UNL1        0.0000
     34 H          -5.7276    2.4536   -1.9957 H       1  UNL1        0.0000
     35 H          -5.7475    2.4851    0.7291 H       1  UNL1        0.0000
     36 H          -3.6053    1.4113    1.4876 H       1  UNL1        0.0000
@<TRIPOS>BOND
     1     1     2    1
     2     2     3    2
     3     3     4   ar
     4     4     5   ar
     5     5     6   ar
     6     6     7   ar
     7     7     8   ar
     8     8     9   ar
     9     9    10   ar
    10    10    11   ar
    11    11    12   ar
    12    12    13   ar
    13    13    14   ar
    14    14    15   ar
    15    15    16   ar
    16    16    17   ar
    17    17    18    2
    18     4    19    1
    19    19    20   ar
    20    20    21   ar
    21    21    22   ar
    22    22    23   ar
    23    18     1    1
    24    23    19   ar
    25    17     3   ar
    26    16     6   ar
    27    15     8   ar
    28    13     9   ar
    29     1    24    1
    30     1    25    1
    31     2    26    1
    32     5    27    1
    33     7    28    1
    34    10    29    1
    35    11    30    1
    36    12    31    1
    37    18    32    1
    38    20    33    1
    39    21    34    1
    40    22    35    1
    41    23    36    1
