@<TRIPOS>MOLECULE
*****
 35 40 0 0 0
SMALL
GASTEIGER

@<TRIPOS>ATOM
      1 C          -0.8943    0.3198   -0.2362 C.3     1  UNL1        0.0004
      2 C          -1.6898   -0.5013    0.8150 C.2     1  UNL1       -0.0276
      3 C          -0.8376   -1.2220    1.5921 C.2     1  UNL1       -0.0431
      4 C           0.4706   -0.9481    1.1438 C.ar    1  UNL1        0.0172
      5 S           1.9779   -1.4710    1.6246 S.2     1  UNL1       -0.0863
      6 C           2.7554   -0.4966    0.3932 C.ar    1  UNL1        0.0490
      7 C           1.8076    0.2172   -0.3672 C.ar    1  UNL1        0.0134
      8 C           2.2669    1.0480   -1.3981 C.ar    1  UNL1        0.0369
      9 N           3.5862    1.1729   -1.6699 N.ar    1  UNL1       -0.2528
     10 C           4.4793    0.4862   -0.9365 C.ar    1  UNL1        0.0903
     11 C           5.8385    0.5911   -1.1881 C.ar    1  UNL1       -0.0328
     12 C           6.7694   -0.1216   -0.4273 C.ar    1  UNL1       -0.0415
     13 C           6.3045   -0.9395    0.5887 C.ar    1  UNL1        0.0284
     14 N           4.9985   -1.0855    0.8842 N.ar    1  UNL1       -0.2523
     15 C           4.1295   -0.3723    0.1171 C.ar    1  UNL1        0.1034
     16 C           0.5009   -0.0708    0.0976 C.ar    1  UNL1       -0.0196
     17 C          -3.1080   -0.5229    0.9739 C.ar    1  UNL1        0.0249
     18 S          -3.9441   -1.4798    2.1882 S.2     1  UNL1       -0.0943
     19 C          -5.5238   -0.9541    1.7129 C.ar    1  UNL1        0.0002
     20 C          -5.3780   -0.0990    0.6844 C.ar    1  UNL1        0.0542
     21 N          -6.3749    0.5460    0.0129 N.ar    1  UNL1       -0.3602
     22 C          -5.6429    1.2751   -0.9211 C.ar    1  UNL1        0.0028
     23 C          -4.2563    1.0494   -0.7840 C.ar    1  UNL1       -0.0356
     24 C          -4.0803    0.1318    0.2884 C.ar    1  UNL1        0.0141
     25 H          -1.1632    0.0179   -1.2530 H       1  UNL1        0.0362
     26 H          -1.0548    1.3932   -0.0967 H       1  UNL1        0.0362
     27 H          -1.0722   -1.8895    2.4080 H       1  UNL1        0.0632
     28 H           1.5964    1.6274   -2.0246 H       1  UNL1        0.0836
     29 H           6.1790    1.2395   -1.9910 H       1  UNL1        0.0640
     30 H           7.8319   -0.0366   -0.6275 H       1  UNL1        0.0633
     31 H           6.9891   -1.5132    1.2072 H       1  UNL1        0.0830
     32 H          -6.4237   -1.2964    2.2037 H       1  UNL1        0.0714
     33 H          -7.3733    0.4903    0.1730 H       1  UNL1        0.1653
     34 H          -6.1718    1.9080   -1.6224 H       1  UNL1        0.0807
     35 H          -3.4925    1.5063   -1.3981 H       1  UNL1        0.0639
@<TRIPOS>BOND
     1     1     2    1
     2     2     3    2
     3     3     4    1
     4     4     5   ar
     5     5     6   ar
     6     6     7   ar
     7     7     8   ar
     8     8     9   ar
     9     9    10   ar
    10    10    11   ar
    11    11    12   ar
    12    12    13   ar
    13    13    14   ar
    14    14    15   ar
    15     7    16   ar
    16     2    17    1
    17    17    18   ar
    18    18    19   ar
    19    19    20   ar
    20    20    21   ar
    21    21    22   ar
    22    22    23   ar
    23    23    24   ar
    24    16     1    1
    25    24    17   ar
    26    16     4   ar
    27    24    20   ar
    28    15     6   ar
    29    15    10   ar
    30     1    25    1
    31     1    26    1
    32     3    27    1
    33     8    28    1
    34    11    29    1
    35    12    30    1
    36    13    31    1
    37    19    32    1
    38    21    33    1
    39    22    34    1
    40    23    35    1
