@<TRIPOS>MOLECULE
*****
 38 43 0 0 0
SMALL
GASTEIGER

@<TRIPOS>ATOM
      1 C           1.5715   -0.3980    0.1686 C.3     1  UNL1        0.0000
      2 C           2.5967    0.3924   -0.6848 C.2     1  UNL1        0.0000
      3 C           1.9701    1.2538   -1.5267 C.2     1  UNL1        0.0000
      4 C           0.5851    1.1107   -1.3038 C.ar    1  UNL1        0.0000
      5 S          -0.7626    1.8496   -1.9768 S.2     1  UNL1        0.0000
      6 C          -1.8450    0.9164   -0.9650 C.ar    1  UNL1        0.0000
      7 C          -3.2578    0.9128   -0.8799 C.ar    1  UNL1        0.0000
      8 SI         -4.4624    1.9332   -1.8486 Si      1  UNL1        0.0000
      9 C          -5.8704    1.0797   -0.8991 C.2     1  UNL1        0.0000
     10 C          -5.4328    0.1740   -0.0029 C.2     1  UNL1        0.0000
     11 C          -3.9774    0.0743    0.0146 C.ar    1  UNL1        0.0000
     12 C          -3.1650   -0.7348    0.7914 C.ar    1  UNL1        0.0000
     13 C          -3.5519   -1.6484    1.7446 C.ar    1  UNL1        0.0000
     14 N          -2.4043   -2.2245    2.2664 N.ar    1  UNL1        0.0000
     15 C          -1.2799   -1.6950    1.6616 C.ar    1  UNL1        0.0000
     16 C          -1.7600   -0.7881    0.7647 C.ar    1  UNL1        0.0000
     17 C          -1.0700    0.0738   -0.1523 C.ar    1  UNL1        0.0000
     18 C           0.3022    0.1782   -0.3389 C.ar    1  UNL1        0.0000
     19 C           4.0210    0.2238   -0.5686 C.2     1  UNL1        0.0000
     20 C           4.9776    1.1633   -0.7348 C.2     1  UNL1        0.0000
     21 C           6.3484    0.7193   -0.5301 C.2     1  UNL1        0.0000
     22 C           6.4908   -0.5745   -0.1921 C.2     1  UNL1        0.0000
     23 SI          4.8290   -1.4359   -0.0923 Si      1  UNL1        0.0000
     24 H           1.6222   -1.4722   -0.0326 H       1  UNL1        0.0000
     25 H           1.7095   -0.1950    1.2350 H       1  UNL1        0.0000
     26 H           2.4226    1.9296   -2.2368 H       1  UNL1        0.0000
     27 H          -4.5196    1.5949   -3.2932 H       1  UNL1        0.0000
     28 H          -4.4182    3.3839   -1.5351 H       1  UNL1        0.0000
     29 H          -6.8974    1.3393   -1.1038 H       1  UNL1        0.0000
     30 H          -6.0649   -0.4214    0.6395 H       1  UNL1        0.0000
     31 H          -4.5242   -1.9505    2.1089 H       1  UNL1        0.0000
     32 H          -2.3938   -2.9325    2.9891 H       1  UNL1        0.0000
     33 H          -0.2885   -2.0215    1.9392 H       1  UNL1        0.0000
     34 H           4.7778    2.1970   -0.9912 H       1  UNL1        0.0000
     35 H           7.1773    1.4071   -0.6459 H       1  UNL1        0.0000
     36 H           7.4147   -1.0955    0.0031 H       1  UNL1        0.0000
     37 H           4.4718   -1.8465    1.2893 H       1  UNL1        0.0000
     38 H           4.6576   -2.4726   -1.1398 H       1  UNL1        0.0000
@<TRIPOS>BOND
     1     1     2    1
     2     2     3    2
     3     3     4    1
     4     4     5   ar
     5     5     6   ar
     6     6     7   ar
     7     7     8    1
     8     8     9    1
     9     9    10    2
    10    10    11    1
    11    11    12   ar
    12    12    13   ar
    13    13    14   ar
    14    14    15   ar
    15    15    16   ar
    16    16    17   ar
    17    17    18   ar
    18     2    19    1
    19    19    20    2
    20    20    21    1
    21    21    22    2
    22    22    23    1
    23    18     1    1
    24    23    19    1
    25    18     4   ar
    26    17     6   ar
    27    11     7   ar
    28    16    12   ar
    29     1    24    1
    30     1    25    1
    31     3    26    1
    32     8    27    1
    33     8    28    1
    34     9    29    1
    35    10    30    1
    36    13    31    1
    37    14    32    1
    38    15    33    1
    39    20    34    1
    40    21    35    1
    41    22    36    1
    42    23    37    1
    43    23    38    1
