@<TRIPOS>MOLECULE
*****
 41 45 0 0 0
SMALL
GASTEIGER

@<TRIPOS>ATOM
      1 C          -2.5841   -0.0201    0.1404 C.3     1  UNL1        0.0000
      2 C          -3.7465   -0.2601   -0.7977 C.2     1  UNL1        0.0000
      3 C          -3.2832   -0.2716   -2.0585 C.2     1  UNL1        0.0000
      4 C          -1.8600   -0.0460   -2.0658 C.2     1  UNL1        0.0000
      5 C          -1.4091    0.1095   -0.8090 C.2     1  UNL1        0.0000
      6 C          -0.0685    0.3560   -0.3443 C.2     1  UNL1        0.0000
      7 SI          1.4429    0.5295   -1.5113 Si      1  UNL1        0.0000
      8 C           2.5045    0.8000    0.0137 C.2     1  UNL1        0.0000
      9 C           1.7624    0.7479    1.1368 C.2     1  UNL1        0.0000
     10 C           0.3395    0.5066    0.9359 C.2     1  UNL1        0.0000
     11 C           3.9038    0.9941   -0.0123 C.ar    1  UNL1        0.0000
     12 S           4.6151    2.2847   -0.9445 S.2     1  UNL1        0.0000
     13 C           6.2252    1.8927   -0.4675 C.ar    1  UNL1        0.0000
     14 C           6.2294    0.8177    0.3763 C.ar    1  UNL1        0.0000
     15 C           7.3165    0.1421    1.0160 C.2     1  UNL1        0.0000
     16 C           6.9578   -0.9050    1.7904 C.2     1  UNL1        0.0000
     17 SI          5.0594   -1.1570    1.7829 Si      1  UNL1        0.0000
     18 C           4.9183    0.3297    0.6233 C.ar    1  UNL1        0.0000
     19 C          -5.1125   -0.4366   -0.3865 C.2     1  UNL1        0.0000
     20 SI         -5.5961   -1.0977    1.3360 Si      1  UNL1        0.0000
     21 C          -7.3911   -0.8899    0.8358 C.2     1  UNL1        0.0000
     22 C          -7.4936   -0.4056   -0.4144 C.2     1  UNL1        0.0000
     23 C          -6.2301   -0.1495   -1.0899 C.2     1  UNL1        0.0000
     24 H          -2.7295    0.9017    0.7148 H       1  UNL1        0.0000
     25 H          -2.4359   -0.8672    0.8192 H       1  UNL1        0.0000
     26 H          -3.8630   -0.4230   -2.9568 H       1  UNL1        0.0000
     27 H          -1.2904   -0.0132   -2.9820 H       1  UNL1        0.0000
     28 H           1.7353   -0.7495   -2.2113 H       1  UNL1        0.0000
     29 H           1.3194    1.7266   -2.3842 H       1  UNL1        0.0000
     30 H           2.1551    0.8816    2.1378 H       1  UNL1        0.0000
     31 H          -0.3168    0.4597    1.7967 H       1  UNL1        0.0000
     32 H           7.0589    2.4737   -0.8354 H       1  UNL1        0.0000
     33 H           8.3456    0.4552    0.8819 H       1  UNL1        0.0000
     34 H           7.6003   -1.5546    2.3623 H       1  UNL1        0.0000
     35 H           4.4919   -0.9247    3.1355 H       1  UNL1        0.0000
     36 H           4.7070   -2.4557    1.1564 H       1  UNL1        0.0000
     37 H          -5.1922   -0.1712    2.4237 H       1  UNL1        0.0000
     38 H          -5.2194   -2.5207    1.5265 H       1  UNL1        0.0000
     39 H          -8.2005   -1.1429    1.5019 H       1  UNL1        0.0000
     40 H          -8.4368   -0.2067   -0.9087 H       1  UNL1        0.0000
     41 H          -6.2289    0.2594   -2.0932 H       1  UNL1        0.0000
@<TRIPOS>BOND
     1     1     2    1
     2     2     3    2
     3     3     4    1
     4     4     5    2
     5     5     6    1
     6     6     7    1
     7     7     8    1
     8     8     9    2
     9     9    10    1
    10     8    11    1
    11    11    12   ar
    12    12    13   ar
    13    13    14   ar
    14    14    15    1
    15    15    16    2
    16    16    17    1
    17    17    18    1
    18     2    19    1
    19    19    20    1
    20    20    21    1
    21    21    22    2
    22    22    23    1
    23     5     1    1
    24    10     6    2
    25    18    11   ar
    26    23    19    2
    27    18    14   ar
    28     1    24    1
    29     1    25    1
    30     3    26    1
    31     4    27    1
    32     7    28    1
    33     7    29    1
    34     9    30    1
    35    10    31    1
    36    13    32    1
    37    15    33    1
    38    16    34    1
    39    17    35    1
    40    17    36    1
    41    20    37    1
    42    20    38    1
    43    21    39    1
    44    22    40    1
    45    23    41    1
