@<TRIPOS>MOLECULE
*****
 40 44 0 0 0
SMALL
GASTEIGER

@<TRIPOS>ATOM
      1 C          -2.3902   -0.1773    0.1985 C.3     1  UNL1        0.0016
      2 C          -3.7040   -0.2694   -0.5451 C.2     1  UNL1       -0.0008
      3 C          -3.4515   -0.2215   -1.8630 C.2     1  UNL1       -0.0545
      4 C          -2.0322   -0.1016   -2.0839 C.2     1  UNL1       -0.0573
      5 C          -1.3729   -0.0732   -0.9098 C.2     1  UNL1       -0.0352
      6 C           0.0759    0.0399   -0.7341 C.ar    1  UNL1       -0.0124
      7 C           0.9974    0.1206   -1.8204 C.ar    1  UNL1       -0.0531
      8 C           2.4252    0.2312   -1.6969 C.ar    1  UNL1       -0.0514
      9 C           3.1036    0.2797   -0.4629 C.ar    1  UNL1        0.0074
     10 C           4.5421    0.3968   -0.3308 C.ar    1  UNL1        0.0471
     11 C           5.3201    1.2767    0.4017 C.ar    1  UNL1       -0.0364
     12 C           6.6807    0.9629    0.1682 C.ar    1  UNL1       -0.0438
     13 C           6.7082   -0.1011   -0.7026 C.ar    1  UNL1        0.0022
     14 N           5.4129   -0.4333   -1.0017 N.ar    1  UNL1       -0.3606
     15 C           2.2100    0.1996    0.6100 C.ar    1  UNL1        0.0091
     16 C           2.5297    0.1823    1.9466 C.ar    1  UNL1        0.0101
     17 N           1.3534    0.0849    2.6464 N.ar    1  UNL1       -0.3659
     18 C           0.2852    0.0224    1.7761 C.ar    1  UNL1        0.0100
     19 C           0.7738    0.0834    0.4905 C.ar    1  UNL1        0.0074
     20 C          -5.0093   -0.3872    0.0019 C.ar    1  UNL1        0.1311
     21 C          -6.2569   -0.4734   -0.6097 C.ar    1  UNL1       -0.0162
     22 C          -7.2391   -0.5759    0.4041 C.ar    1  UNL1       -0.0233
     23 C          -6.5538   -0.5482    1.5900 C.ar    1  UNL1        0.0926
     24 O          -5.2237   -0.4361    1.3643 O.2     1  UNL1       -0.4632
     25 H          -2.2398   -1.0809    0.7987 H       1  UNL1        0.0363
     26 H          -2.3864    0.7152    0.8331 H       1  UNL1        0.0363
     27 H          -4.1674   -0.2629   -2.6696 H       1  UNL1        0.0622
     28 H          -1.6118   -0.0459   -3.0761 H       1  UNL1        0.0621
     29 H           0.6137    0.1035   -2.8404 H       1  UNL1        0.0624
     30 H           3.0033    0.3018   -2.6182 H       1  UNL1        0.0624
     31 H           4.9411    2.0697    1.0339 H       1  UNL1        0.0639
     32 H           7.5440    1.4610    0.5894 H       1  UNL1        0.0633
     33 H           7.5341   -0.6500   -1.1343 H       1  UNL1        0.0807
     34 H           5.1294   -1.1911   -1.6079 H       1  UNL1        0.1653
     35 H           3.4769    0.2263    2.4666 H       1  UNL1        0.0813
     36 H           1.2800    0.0538    3.6550 H       1  UNL1        0.1648
     37 H          -0.7069   -0.0645    2.1898 H       1  UNL1        0.0813
     38 H          -6.4360   -0.4628   -1.6757 H       1  UNL1        0.0655
     39 H          -8.3096   -0.6590    0.2829 H       1  UNL1        0.0649
     40 H          -6.8492   -0.5959    2.6287 H       1  UNL1        0.1029
@<TRIPOS>BOND
     1     1     2    1
     2     2     3    2
     3     3     4    1
     4     4     5    2
     5     5     6    1
     6     6     7   ar
     7     7     8   ar
     8     8     9   ar
     9     9    10    1
    10    10    11   ar
    11    11    12   ar
    12    12    13   ar
    13    13    14   ar
    14     9    15   ar
    15    15    16   ar
    16    16    17   ar
    17    17    18   ar
    18    18    19   ar
    19     2    20    1
    20    20    21   ar
    21    21    22   ar
    22    22    23   ar
    23    23    24   ar
    24     5     1    1
    25    19     6   ar
    26    24    20   ar
    27    14    10   ar
    28    19    15   ar
    29     1    25    1
    30     1    26    1
    31     3    27    1
    32     4    28    1
    33     7    29    1
    34     8    30    1
    35    11    31    1
    36    12    32    1
    37    13    33    1
    38    14    34    1
    39    16    35    1
    40    17    36    1
    41    18    37    1
    42    21    38    1
    43    22    39    1
    44    23    40    1
