@<TRIPOS>MOLECULE
*****
 50 56 0 0 0
SMALL
GASTEIGER

@<TRIPOS>ATOM
      1 C           2.5129   -0.8813    0.3119 C.3     1  UNL1        0.0000
      2 C           3.9571   -0.4259    0.2091 C.2     1  UNL1        0.0000
      3 C           3.9787    0.9205    0.2257 C.2     1  UNL1        0.0000
      4 C           2.6376    1.4413    0.3053 C.2     1  UNL1        0.0000
      5 C           1.7626    0.4250    0.3525 C.2     1  UNL1        0.0000
      6 C           0.3186    0.5127    0.4293 C.ar    1  UNL1        0.0000
      7 C          -0.3150   -0.0804    1.4691 C.ar    1  UNL1        0.0000
      8 C          -1.7625   -0.0463    1.6623 C.ar    1  UNL1        0.0000
      9 C          -2.6023    0.5769    0.8069 C.ar    1  UNL1        0.0000
     10 C          -4.0289    0.5516    1.1176 C.ar    1  UNL1        0.0000
     11 C          -4.6763    1.3892    2.0594 C.ar    1  UNL1        0.0000
     12 C          -6.0891    1.3456    2.3356 C.ar    1  UNL1        0.0000
     13 C          -6.9985    0.4658    1.7016 C.ar    1  UNL1        0.0000
     14 C          -6.3392   -0.3411    0.7829 C.ar    1  UNL1        0.0000
     15 C          -6.9151   -1.3029   -0.0058 C.ar    1  UNL1        0.0000
     16 N          -5.9033   -1.8582   -0.7620 N.ar    1  UNL1        0.0000
     17 C          -4.6967   -1.2611   -0.4615 C.ar    1  UNL1        0.0000
     18 C          -4.9408   -0.3093    0.4986 C.ar    1  UNL1        0.0000
     19 C          -2.0101    1.2450   -0.3513 C.ar    1  UNL1        0.0000
     20 C          -2.6882    1.9116   -1.3079 C.2     1  UNL1        0.0000
     21 SI         -1.5397    2.5745   -2.6142 Si      1  UNL1        0.0000
     22 C          -0.1131    1.8289   -1.6696 C.2     1  UNL1        0.0000
     23 C          -0.5355    1.2074   -0.5483 C.ar    1  UNL1        0.0000
     24 C           5.1333   -1.2137    0.1575 C.ar    1  UNL1        0.0000
     25 S           5.3272   -2.6384    1.1222 S.2     1  UNL1        0.0000
     26 C           6.9002   -2.9676    0.5101 C.ar    1  UNL1        0.0000
     27 C           7.1951   -2.0200   -0.4059 C.ar    1  UNL1        0.0000
     28 C           8.3202   -1.8046   -1.2363 C.ar    1  UNL1        0.0000
     29 C           8.1687   -0.6840   -2.0595 C.ar    1  UNL1        0.0000
     30 S           6.6569    0.1985   -1.9045 S.2     1  UNL1        0.0000
     31 C           6.2373   -1.0310   -0.6394 C.ar    1  UNL1        0.0000
     32 H           2.2296   -1.4732   -0.5652 H       1  UNL1        0.0000
     33 H           2.3501   -1.4668    1.2227 H       1  UNL1        0.0000
     34 H           4.8493    1.5594    0.2025 H       1  UNL1        0.0000
     35 H           2.3986    2.4941    0.3244 H       1  UNL1        0.0000
     36 H           0.2437   -0.6045    2.2404 H       1  UNL1        0.0000
     37 H          -2.1402   -0.5588    2.5438 H       1  UNL1        0.0000
     38 H          -4.0746    2.1154    2.6069 H       1  UNL1        0.0000
     39 H          -6.4802    2.0387    3.0812 H       1  UNL1        0.0000
     40 H          -8.0566    0.4429    1.9173 H       1  UNL1        0.0000
     41 H          -7.9343   -1.6493   -0.1074 H       1  UNL1        0.0000
     42 H          -6.0269   -2.5986   -1.4400 H       1  UNL1        0.0000
     43 H          -3.7880   -1.5710   -0.9602 H       1  UNL1        0.0000
     44 H          -3.7553    2.0582   -1.3675 H       1  UNL1        0.0000
     45 H          -1.4896    4.0568   -2.6347 H       1  UNL1        0.0000
     46 H          -1.7420    1.9286   -3.9342 H       1  UNL1        0.0000
     47 H           0.8987    1.9180   -2.0303 H       1  UNL1        0.0000
     48 H           7.4749   -3.8183    0.8474 H       1  UNL1        0.0000
     49 H           9.2083   -2.4244   -1.2568 H       1  UNL1        0.0000
     50 H           8.8823   -0.3111   -2.7817 H       1  UNL1        0.0000
@<TRIPOS>BOND
     1     1     2    1
     2     2     3    2
     3     3     4    1
     4     4     5    2
     5     5     6    1
     6     6     7   ar
     7     7     8   ar
     8     8     9   ar
     9     9    10    1
    10    10    11   ar
    11    11    12   ar
    12    12    13   ar
    13    13    14   ar
    14    14    15   ar
    15    15    16   ar
    16    16    17   ar
    17    17    18   ar
    18     9    19   ar
    19    19    20    2
    20    20    21    1
    21    21    22    1
    22    22    23    2
    23     2    24    1
    24    24    25   ar
    25    25    26   ar
    26    26    27   ar
    27    27    28   ar
    28    28    29   ar
    29    29    30   ar
    30    30    31   ar
    31     5     1    1
    32    23     6   ar
    33    31    24   ar
    34    18    10   ar
    35    23    19   ar
    36    31    27   ar
    37    18    14   ar
    38     1    32    1
    39     1    33    1
    40     3    34    1
    41     4    35    1
    42     7    36    1
    43     8    37    1
    44    11    38    1
    45    12    39    1
    46    13    40    1
    47    15    41    1
    48    16    42    1
    49    17    43    1
    50    20    44    1
    51    21    45    1
    52    21    46    1
    53    22    47    1
    54    26    48    1
    55    28    49    1
    56    29    50    1
