@<TRIPOS>MOLECULE
*****
 48 54 0 0 0
SMALL
GASTEIGER

@<TRIPOS>ATOM
      1 C           2.0935   -0.5878    0.3029 C.3     1  UNL1       -0.0008
      2 C           3.3221   -0.9819    1.1059 C.2     1  UNL1       -0.0287
      3 C           2.9170   -1.3580    2.3357 C.2     1  UNL1       -0.0569
      4 C           1.4837   -1.2512    2.4521 C.2     1  UNL1       -0.0574
      5 C           0.9848   -0.8057    1.2912 C.2     1  UNL1       -0.0353
      6 C          -0.4185   -0.5462    0.9834 C.ar    1  UNL1       -0.0138
      7 C          -1.1805   -1.6359    0.5515 C.ar    1  UNL1       -0.0531
      8 C          -2.5267   -1.4745    0.2472 C.ar    1  UNL1       -0.0528
      9 C          -3.1500   -0.2214    0.3674 C.ar    1  UNL1       -0.0066
     10 C          -4.5789   -0.1365    0.0675 C.ar    1  UNL1        0.0290
     11 C          -5.5838   -0.0683    1.0423 C.ar    1  UNL1        0.0375
     12 N          -6.9420    0.0088    0.8492 N.ar    1  UNL1       -0.2604
     13 C          -7.4661    0.0197   -0.4111 C.ar    1  UNL1        0.0557
     14 C          -6.5766   -0.0495   -1.5010 C.ar    1  UNL1        0.1185
     15 N          -6.9058   -0.0525   -2.8028 N.ar    1  UNL1       -0.1892
     16 S          -5.4779   -0.1463   -3.6450 S.2     1  UNL1        0.1165
     17 N          -4.3849   -0.1914   -2.3984 N.ar    1  UNL1       -0.1901
     18 C          -5.0913   -0.1309   -1.2550 C.ar    1  UNL1        0.1105
     19 C          -2.3879    0.9045    0.7985 C.ar    1  UNL1       -0.0095
     20 C          -2.9460    2.2016    0.9211 C.ar    1  UNL1       -0.0534
     21 C          -2.1962    3.2953    1.3551 C.ar    1  UNL1       -0.0611
     22 C          -0.8612    3.1268    1.6792 C.ar    1  UNL1       -0.0611
     23 C          -0.2783    1.8664    1.5607 C.ar    1  UNL1       -0.0534
     24 C          -1.0107    0.7372    1.1173 C.ar    1  UNL1       -0.0099
     25 C           4.6820   -0.9667    0.6811 C.ar    1  UNL1        0.0249
     26 S           6.0282   -1.4937    1.6796 S.2     1  UNL1       -0.0943
     27 C           7.2297   -1.1540    0.4798 C.ar    1  UNL1        0.0002
     28 C           6.5984   -0.6736   -0.6067 C.ar    1  UNL1        0.0542
     29 N           7.1749   -0.2804   -1.7789 N.ar    1  UNL1       -0.3602
     30 C           6.0575    0.1146   -2.5096 C.ar    1  UNL1        0.0028
     31 C           4.8680   -0.0501   -1.7674 C.ar    1  UNL1       -0.0356
     32 C           5.2304   -0.5758   -0.4973 C.ar    1  UNL1        0.0141
     33 H           2.1511    0.4595   -0.0137 H       1  UNL1        0.0362
     34 H           1.9758   -1.2348   -0.5732 H       1  UNL1        0.0362
     35 H           3.5336   -1.6954    3.1564 H       1  UNL1        0.0621
     36 H           0.9265   -1.4912    3.3452 H       1  UNL1        0.0621
     37 H          -0.7266   -2.6197    0.4470 H       1  UNL1        0.0624
     38 H          -3.0948   -2.3421   -0.0876 H       1  UNL1        0.0624
     39 H          -5.3025   -0.0731    2.0968 H       1  UNL1        0.0836
     40 H          -8.5415    0.0797   -0.5122 H       1  UNL1        0.0852
     41 H          -3.9882    2.3855    0.6689 H       1  UNL1        0.0624
     42 H          -2.6585    4.2758    1.4354 H       1  UNL1        0.0618
     43 H          -0.2671    3.9714    2.0189 H       1  UNL1        0.0618
     44 H           0.7738    1.7730    1.8240 H       1  UNL1        0.0624
     45 H           8.2834   -1.3244    0.6463 H       1  UNL1        0.0714
     46 H           8.1570   -0.2851   -2.0250 H       1  UNL1        0.1653
     47 H           6.1949    0.4886   -3.5171 H       1  UNL1        0.0807
     48 H           3.8760    0.1898   -2.1247 H       1  UNL1        0.0639
@<TRIPOS>BOND
     1     1     2    1
     2     2     3    2
     3     3     4    1
     4     4     5    2
     5     5     6    1
     6     6     7   ar
     7     7     8   ar
     8     8     9   ar
     9     9    10    1
    10    10    11   ar
    11    11    12   ar
    12    12    13   ar
    13    13    14   ar
    14    14    15   ar
    15    15    16   ar
    16    16    17   ar
    17    17    18   ar
    18     9    19   ar
    19    19    20   ar
    20    20    21   ar
    21    21    22   ar
    22    22    23   ar
    23    23    24   ar
    24     2    25    1
    25    25    26   ar
    26    26    27   ar
    27    27    28   ar
    28    28    29   ar
    29    29    30   ar
    30    30    31   ar
    31    31    32   ar
    32     5     1    1
    33    24     6   ar
    34    32    25   ar
    35    18    10   ar
    36    24    19   ar
    37    32    28   ar
    38    18    14   ar
    39     1    33    1
    40     1    34    1
    41     3    35    1
    42     4    36    1
    43     7    37    1
    44     8    38    1
    45    11    39    1
    46    13    40    1
    47    20    41    1
    48    21    42    1
    49    22    43    1
    50    23    44    1
    51    27    45    1
    52    29    46    1
    53    30    47    1
    54    31    48    1
