@<TRIPOS>MOLECULE
*****
 44 49 0 0 0
SMALL
GASTEIGER

@<TRIPOS>ATOM
      1 C           3.2391    0.4115    0.5853 C.3     1  UNL1        0.0000
      2 C           4.5074    0.6175   -0.2154 C.2     1  UNL1        0.0000
      3 C           4.1708    0.8247   -1.5033 C.2     1  UNL1        0.0000
      4 C           2.7394    0.7816   -1.6597 C.2     1  UNL1        0.0000
      5 C           2.1697    0.5417   -0.4686 C.2     1  UNL1        0.0000
      6 C           0.7576    0.4347   -0.1734 C.ar    1  UNL1        0.0000
      7 C          -0.0161    1.5384   -0.3031 C.ar    1  UNL1        0.0000
      8 C          -1.4453    1.5630   -0.0038 C.ar    1  UNL1        0.0000
      9 C          -2.1242    0.4828    0.4458 C.ar    1  UNL1        0.0000
     10 C          -3.5261    0.6324    0.6727 C.ar    1  UNL1        0.0000
     11 S          -4.1209    1.3915    2.1202 S.2     1  UNL1        0.0000
     12 C          -5.7767    1.1808    1.6723 C.ar    1  UNL1        0.0000
     13 C          -5.8736    0.5478    0.4638 C.ar    1  UNL1        0.0000
     14 C          -7.0195    0.1606   -0.3001 C.2     1  UNL1        0.0000
     15 C          -6.7395   -0.4580   -1.4685 C.2     1  UNL1        0.0000
     16 SI         -4.8437   -0.6236   -1.7356 Si      1  UNL1        0.0000
     17 C          -4.5990    0.2455   -0.0805 C.ar    1  UNL1        0.0000
     18 C          -1.3669   -0.7620    0.6062 C.ar    1  UNL1        0.0000
     19 C          -1.8712   -1.9419    1.0235 C.2     1  UNL1        0.0000
     20 SI         -0.5637   -3.2695    1.0455 Si      1  UNL1        0.0000
     21 C           0.6627   -1.9998    0.4348 C.2     1  UNL1        0.0000
     22 C           0.0857   -0.7893    0.2852 C.ar    1  UNL1        0.0000
     23 C           5.8699    0.6157    0.1972 C.ar    1  UNL1        0.0000
     24 N           6.9266    0.8012   -0.5758 N.ar    1  UNL1        0.0000
     25 C           8.0913    0.7379    0.1613 C.ar    1  UNL1        0.0000
     26 C           7.9297    0.4994    1.5056 C.ar    1  UNL1        0.0000
     27 S           6.2650    0.3506    1.8668 S.2     1  UNL1        0.0000
     28 H           3.1285    1.1862    1.3521 H       1  UNL1        0.0000
     29 H           3.2315   -0.5773    1.0537 H       1  UNL1        0.0000
     30 H           4.8556    1.0027   -2.3212 H       1  UNL1        0.0000
     31 H           2.2297    0.9229   -2.6010 H       1  UNL1        0.0000
     32 H           0.4124    2.4842   -0.6276 H       1  UNL1        0.0000
     33 H          -1.9476    2.5143   -0.1637 H       1  UNL1        0.0000
     34 H          -6.5642    1.5320    2.3237 H       1  UNL1        0.0000
     35 H          -8.0298    0.3536    0.0418 H       1  UNL1        0.0000
     36 H          -7.4335   -0.8346   -2.2022 H       1  UNL1        0.0000
     37 H          -4.4196    0.1692   -2.9168 H       1  UNL1        0.0000
     38 H          -4.4519   -2.0559   -1.7424 H       1  UNL1        0.0000
     39 H          -2.8890   -2.1524    1.3125 H       1  UNL1        0.0000
     40 H          -0.2501   -3.7410    2.4159 H       1  UNL1        0.0000
     41 H          -0.8183   -4.3337    0.0449 H       1  UNL1        0.0000
     42 H           1.6881   -2.2698    0.2416 H       1  UNL1        0.0000
     43 H           9.0418    0.8747   -0.3395 H       1  UNL1        0.0000
     44 H           8.6878    0.4098    2.2698 H       1  UNL1        0.0000
@<TRIPOS>BOND
     1     1     2    1
     2     2     3    2
     3     3     4    1
     4     4     5    2
     5     5     6    1
     6     6     7   ar
     7     7     8   ar
     8     8     9   ar
     9     9    10    1
    10    10    11   ar
    11    11    12   ar
    12    12    13   ar
    13    13    14    1
    14    14    15    2
    15    15    16    1
    16    16    17    1
    17     9    18   ar
    18    18    19    2
    19    19    20    1
    20    20    21    1
    21    21    22    2
    22     2    23    1
    23    23    24   ar
    24    24    25   ar
    25    25    26   ar
    26    26    27   ar
    27     5     1    1
    28    22     6   ar
    29    27    23   ar
    30    17    10   ar
    31    22    18   ar
    32    17    13   ar
    33     1    28    1
    34     1    29    1
    35     3    30    1
    36     4    31    1
    37     7    32    1
    38     8    33    1
    39    12    34    1
    40    14    35    1
    41    15    36    1
    42    16    37    1
    43    16    38    1
    44    19    39    1
    45    20    40    1
    46    20    41    1
    47    21    42    1
    48    25    43    1
    49    26    44    1
