@<TRIPOS>MOLECULE
*****
 45 50 0 0 0
SMALL
GASTEIGER

@<TRIPOS>ATOM
      1 C           2.9814   -0.6828   -0.0772 C.3     1  UNL1        0.0016
      2 C           4.2382   -0.2563    0.6498 C.2     1  UNL1       -0.0008
      3 C           3.8910    0.4882    1.7166 C.2     1  UNL1       -0.0545
      4 C           2.4569    0.6158    1.7895 C.2     1  UNL1       -0.0573
      5 C           1.9075   -0.0494    0.7625 C.2     1  UNL1       -0.0352
      6 C           0.4842   -0.1776    0.4597 C.ar    1  UNL1       -0.0138
      7 C          -0.2264   -1.1467    1.1769 C.ar    1  UNL1       -0.0531
      8 C          -1.5804   -1.3456    0.9374 C.ar    1  UNL1       -0.0523
      9 C          -2.2533   -0.5786   -0.0240 C.ar    1  UNL1       -0.0015
     10 C          -3.6806   -0.8503   -0.2278 C.ar    1  UNL1        0.0474
     11 S          -4.1480   -2.1065   -1.3135 S.2     1  UNL1       -0.0923
     12 C          -5.8210   -1.8360   -1.0393 C.ar    1  UNL1        0.0038
     13 C          -6.0214   -0.8200   -0.1408 C.ar    1  UNL1        0.0968
     14 N          -7.2601   -0.4091    0.2492 N.ar    1  UNL1       -0.2514
     15 C          -7.1651    0.6116    1.1464 C.ar    1  UNL1        0.0464
     16 C          -5.9674    1.1699    1.6114 C.ar    1  UNL1        0.0464
     17 N          -4.7202    0.7756    1.2359 N.ar    1  UNL1       -0.2508
     18 C          -4.7843   -0.2474    0.3349 C.ar    1  UNL1        0.1039
     19 C          -1.5597    0.4268   -0.7554 C.ar    1  UNL1       -0.0090
     20 C          -2.1919    1.2425   -1.7271 C.ar    1  UNL1       -0.0534
     21 C          -1.5002    2.2272   -2.4324 C.ar    1  UNL1       -0.0611
     22 C          -0.1533    2.4294   -2.1842 C.ar    1  UNL1       -0.0611
     23 C           0.4983    1.6435   -1.2342 C.ar    1  UNL1       -0.0534
     24 C          -0.1735    0.6304   -0.5070 C.ar    1  UNL1       -0.0099
     25 C           5.5965   -0.5362    0.3445 C.ar    1  UNL1        0.1311
     26 C           6.1191   -1.2799   -0.7085 C.ar    1  UNL1       -0.0162
     27 C           7.5293   -1.2754   -0.5921 C.ar    1  UNL1       -0.0233
     28 C           7.8085   -0.5311    0.5241 C.ar    1  UNL1        0.0926
     29 O           6.6638   -0.0837    1.0926 O.2     1  UNL1       -0.4632
     30 H           2.8865   -1.7739   -0.0881 H       1  UNL1        0.0363
     31 H           2.9743   -0.3006   -1.1031 H       1  UNL1        0.0363
     32 H           4.5653    0.9386    2.4312 H       1  UNL1        0.0622
     33 H           1.9334    1.1682    2.5553 H       1  UNL1        0.0621
     34 H           0.2747   -1.7567    1.9258 H       1  UNL1        0.0624
     35 H          -2.1131   -2.1041    1.5072 H       1  UNL1        0.0624
     36 H          -6.5684   -2.4303   -1.5443 H       1  UNL1        0.0715
     37 H          -8.1176    0.9931    1.5039 H       1  UNL1        0.0845
     38 H          -5.9891    1.9849    2.3297 H       1  UNL1        0.0845
     39 H          -3.2511    1.1228   -1.9450 H       1  UNL1        0.0624
     40 H          -2.0195    2.8358   -3.1676 H       1  UNL1        0.0618
     41 H           0.3939    3.1990   -2.7218 H       1  UNL1        0.0618
     42 H           1.5539    1.8409   -1.0578 H       1  UNL1        0.0624
     43 H           5.5373   -1.7713   -1.4762 H       1  UNL1        0.0655
     44 H           8.2490   -1.7545   -1.2403 H       1  UNL1        0.0649
     45 H           8.7222   -0.2401    1.0231 H       1  UNL1        0.1029
@<TRIPOS>BOND
     1     1     2    1
     2     2     3    2
     3     3     4    1
     4     4     5    2
     5     5     6    1
     6     6     7   ar
     7     7     8   ar
     8     8     9   ar
     9     9    10    1
    10    10    11   ar
    11    11    12   ar
    12    12    13   ar
    13    13    14   ar
    14    14    15   ar
    15    15    16   ar
    16    16    17   ar
    17    17    18   ar
    18     9    19   ar
    19    19    20   ar
    20    20    21   ar
    21    21    22   ar
    22    22    23   ar
    23    23    24   ar
    24     2    25    1
    25    25    26   ar
    26    26    27   ar
    27    27    28   ar
    28    28    29   ar
    29     5     1    1
    30    24     6   ar
    31    29    25   ar
    32    18    10   ar
    33    24    19   ar
    34    18    13   ar
    35     1    30    1
    36     1    31    1
    37     3    32    1
    38     4    33    1
    39     7    34    1
    40     8    35    1
    41    12    36    1
    42    15    37    1
    43    16    38    1
    44    20    39    1
    45    21    40    1
    46    22    41    1
    47    23    42    1
    48    26    43    1
    49    27    44    1
    50    28    45    1
