@<TRIPOS>MOLECULE
*****
 41 46 0 0 0
SMALL
GASTEIGER

@<TRIPOS>ATOM
      1 C           2.8502   -0.3102    0.5501 C.3     1  UNL1        0.0017
      2 C           4.1018    0.3181    0.0035 C.2     1  UNL1        0.0011
      3 C           3.7772    1.2556   -0.9029 C.2     1  UNL1       -0.0545
      4 C           2.3435    1.3254   -1.0309 C.2     1  UNL1       -0.0573
      5 C           1.7712    0.4220   -0.2160 C.2     1  UNL1       -0.0351
      6 C           0.3573    0.1610   -0.0104 C.ar    1  UNL1       -0.0108
      7 C          -0.2251   -0.1665    1.2421 C.ar    1  UNL1       -0.0530
      8 C          -1.6259   -0.4302    1.4494 C.ar    1  UNL1       -0.0522
      9 C          -2.5981   -0.4064    0.4210 C.ar    1  UNL1        0.0001
     10 C          -4.0115   -0.6508    0.6080 C.ar    1  UNL1        0.0308
     11 S          -4.5646   -2.1120    1.3887 S.2     1  UNL1       -0.0923
     12 C          -6.2420   -1.6993    1.2361 C.ar    1  UNL1        0.0192
     13 C          -6.3108   -0.5037    0.6250 C.ar    1  UNL1        0.1424
     14 O          -7.4436    0.1851    0.3207 O.2     1  UNL1       -0.4624
     15 C          -6.8825    1.3059   -0.2648 C.ar    1  UNL1        0.0932
     16 C          -5.4823    1.2899   -0.3107 C.ar    1  UNL1       -0.0150
     17 C          -5.1110    0.0695    0.2832 C.ar    1  UNL1        0.0349
     18 C          -2.0119   -0.1091   -0.8120 C.ar    1  UNL1        0.0286
     19 C          -2.6057   -0.0578   -2.0476 C.ar    1  UNL1        0.1000
     20 O          -1.6688    0.2248   -3.0001 O.2     1  UNL1       -0.4698
     21 C          -0.4619    0.3403   -2.3696 C.ar    1  UNL1        0.1000
     22 C          -0.6164    0.1576   -1.0180 C.ar    1  UNL1        0.0278
     23 C           5.4293   -0.0851    0.4456 C.ar    1  UNL1        0.1594
     24 N           6.4790    0.5305   -0.1045 N.ar    1  UNL1       -0.2163
     25 C           7.6587    0.1126    0.3453 C.ar    1  UNL1        0.1200
     26 N           7.8588   -0.8307    1.2620 N.ar    1  UNL1       -0.2241
     27 C           6.7370   -1.3678    1.7341 C.ar    1  UNL1        0.1200
     28 N           5.4984   -1.0430    1.3723 N.ar    1  UNL1       -0.2163
     29 H           2.7651   -0.1370    1.6282 H       1  UNL1        0.0363
     30 H           2.8167   -1.3848    0.3393 H       1  UNL1        0.0363
     31 H           4.4663    1.8742   -1.4591 H       1  UNL1        0.0622
     32 H           1.8434    2.0306   -1.6775 H       1  UNL1        0.0621
     33 H           0.4148   -0.2073    2.1248 H       1  UNL1        0.0624
     34 H          -1.9459   -0.6509    2.4691 H       1  UNL1        0.0624
     35 H          -7.0491   -2.3245    1.5887 H       1  UNL1        0.0731
     36 H          -7.6096    2.0342   -0.6000 H       1  UNL1        0.1030
     37 H          -4.8498    2.0657   -0.7183 H       1  UNL1        0.0655
     38 H          -3.6105   -0.2023   -2.4192 H       1  UNL1        0.1036
     39 H           0.3760    0.5349   -3.0233 H       1  UNL1        0.1036
     40 H           8.5401    0.5852   -0.0747 H       1  UNL1        0.1048
     41 H           6.8421   -2.1437    2.4849 H       1  UNL1        0.1048
@<TRIPOS>BOND
     1     1     2    1
     2     2     3    2
     3     3     4    1
     4     4     5    2
     5     5     6    1
     6     6     7   ar
     7     7     8   ar
     8     8     9   ar
     9     9    10    1
    10    10    11   ar
    11    11    12   ar
    12    12    13   ar
    13    13    14   ar
    14    14    15   ar
    15    15    16   ar
    16    16    17   ar
    17     9    18   ar
    18    18    19   ar
    19    19    20   ar
    20    20    21   ar
    21    21    22   ar
    22     2    23    1
    23    23    24   ar
    24    24    25   ar
    25    25    26   ar
    26    26    27   ar
    27    27    28   ar
    28     5     1    1
    29    22     6   ar
    30    28    23   ar
    31    17    10   ar
    32    22    18   ar
    33    17    13   ar
    34     1    29    1
    35     1    30    1
    36     3    31    1
    37     4    32    1
    38     7    33    1
    39     8    34    1
    40    12    35    1
    41    15    36    1
    42    16    37    1
    43    19    38    1
    44    21    39    1
    45    25    40    1
    46    27    41    1
