@<TRIPOS>MOLECULE
*****
 35 38 0 0 0
SMALL
GASTEIGER

@<TRIPOS>ATOM
      1 C           2.4319    0.2688   -0.4998 C.3     1  UNL1       -0.0003
      2 C           3.5050   -0.4657    0.2789 C.2     1  UNL1       -0.0293
      3 C           2.8893   -1.2815    1.1536 C.2     1  UNL1       -0.0569
      4 C           1.4570   -1.1615    1.0332 C.2     1  UNL1       -0.0569
      5 C           1.1381   -0.2678    0.0796 C.2     1  UNL1       -0.0293
      6 C          -0.1976    0.0844   -0.2885 C.ar    1  UNL1        0.0163
      7 C          -0.5845    1.0113   -1.2436 C.ar    1  UNL1       -0.0466
      8 C          -1.9981    1.1337   -1.3759 C.ar    1  UNL1       -0.0464
      9 C          -2.6833    0.2904   -0.5257 C.ar    1  UNL1        0.0199
     10 S          -1.5957   -0.6216    0.4308 S.2     1  UNL1       -0.0886
     11 C          -4.1349    0.1397   -0.3593 C.ar    1  UNL1       -0.0113
     12 C          -4.7394   -1.1246   -0.2923 C.ar    1  UNL1       -0.0535
     13 C          -6.1240   -1.2477   -0.1469 C.ar    1  UNL1       -0.0612
     14 C          -6.9220   -0.1085   -0.0693 C.ar    1  UNL1       -0.0617
     15 C          -6.3377    1.1540   -0.1387 C.ar    1  UNL1       -0.0612
     16 C          -4.9534    1.2770   -0.2851 C.ar    1  UNL1       -0.0535
     17 C           4.9229   -0.3445    0.1417 C.ar    1  UNL1        0.0157
     18 C           5.6115    0.4765   -0.7409 C.ar    1  UNL1       -0.0472
     19 C           7.0283    0.3694   -0.6336 C.ar    1  UNL1       -0.0541
     20 C           7.3989   -0.5344    0.3321 C.ar    1  UNL1       -0.0237
     21 S           6.0481   -1.2416    1.0962 S.2     1  UNL1       -0.0970
     22 H           2.5030    0.0431   -1.5695 H       1  UNL1        0.0362
     23 H           2.5095    1.3506   -0.3447 H       1  UNL1        0.0362
     24 H           3.3482   -1.9510    1.8664 H       1  UNL1        0.0621
     25 H           0.7820   -1.7351    1.6515 H       1  UNL1        0.0621
     26 H           0.1202    1.5869   -1.8315 H       1  UNL1        0.0629
     27 H          -2.4867    1.8042   -2.0726 H       1  UNL1        0.0629
     28 H          -4.1389   -2.0288   -0.3630 H       1  UNL1        0.0624
     29 H          -6.5774   -2.2343   -0.0963 H       1  UNL1        0.0618
     30 H          -7.9986   -0.2050    0.0450 H       1  UNL1        0.0618
     31 H          -6.9579    2.0444   -0.0764 H       1  UNL1        0.0618
     32 H          -4.5165    2.2722   -0.3275 H       1  UNL1        0.0624
     33 H           5.1164    1.1356   -1.4439 H       1  UNL1        0.0629
     34 H           7.7362    0.9270   -1.2343 H       1  UNL1        0.0623
     35 H           8.4002   -0.8156    0.6278 H       1  UNL1        0.0693
@<TRIPOS>BOND
     1     1     2    1
     2     2     3    2
     3     3     4    1
     4     4     5    2
     5     5     6    1
     6     6     7   ar
     7     7     8   ar
     8     8     9   ar
     9     9    10   ar
    10     9    11    1
    11    11    12   ar
    12    12    13   ar
    13    13    14   ar
    14    14    15   ar
    15    15    16   ar
    16     2    17    1
    17    17    18   ar
    18    18    19   ar
    19    19    20   ar
    20    20    21   ar
    21     5     1    1
    22    10     6   ar
    23    16    11   ar
    24    21    17   ar
    25     1    22    1
    26     1    23    1
    27     3    24    1
    28     4    25    1
    29     7    26    1
    30     8    27    1
    31    12    28    1
    32    13    29    1
    33    14    30    1
    34    15    31    1
    35    16    32    1
    36    18    33    1
    37    19    34    1
    38    20    35    1
