@<TRIPOS>MOLECULE
*****
 40 46 0 0 0
SMALL
GASTEIGER

@<TRIPOS>ATOM
      1 SI          1.5030    1.3041    3.4912 Si      1  UNL1        0.0000
      2 C           2.2877    1.1128    1.8075 C.2     1  UNL1        0.0000
      3 C           1.3815    0.7300    0.8818 C.ar    1  UNL1        0.0000
      4 C           1.6748    0.4844   -0.5578 C.ar    1  UNL1        0.0000
      5 C           0.6611    0.1126   -1.3861 C.ar    1  UNL1        0.0000
      6 C          -0.6354   -0.0244   -0.8200 C.ar    1  UNL1        0.0000
      7 N          -1.7315   -0.3934   -1.5522 N.ar    1  UNL1        0.0000
      8 C          -2.8016   -0.4262   -0.6908 C.ar    1  UNL1        0.0000
      9 C          -4.1690   -0.6801   -0.6112 C.ar    1  UNL1        0.0000
     10 SI         -5.6841   -1.1735   -1.5446 Si      1  UNL1        0.0000
     11 C          -6.6594   -1.0172    0.1394 C.2     1  UNL1        0.0000
     12 C          -5.8547   -0.6460    1.1615 C.2     1  UNL1        0.0000
     13 C          -4.5274   -0.4782    0.7043 C.ar    1  UNL1        0.0000
     14 N          -3.4439   -0.1110    1.4423 N.ar    1  UNL1        0.0000
     15 C          -2.3735   -0.0795    0.5726 C.ar    1  UNL1        0.0000
     16 C          -0.9930    0.1783    0.4996 C.ar    1  UNL1        0.0000
     17 C          -0.0024    0.5685    1.4329 C.ar    1  UNL1        0.0000
     18 C          -0.1378    0.8171    2.7477 C.2     1  UNL1        0.0000
     19 C           2.9672    0.6003   -1.1439 C.ar    1  UNL1        0.0000
     20 S           3.4788    1.9574   -2.0819 S.2     1  UNL1        0.0000
     21 C           5.0538    1.3073   -2.3414 C.ar    1  UNL1        0.0000
     22 C           5.1203    0.1127   -1.7129 C.ar    1  UNL1        0.0000
     23 C           6.1426   -0.8570   -1.5787 C.ar    1  UNL1        0.0000
     24 C           5.7355   -1.9585   -0.8168 C.ar    1  UNL1        0.0000
     25 S           4.0880   -1.9167   -0.2004 S.2     1  UNL1        0.0000
     26 C           3.9797   -0.3165   -1.0338 C.ar    1  UNL1        0.0000
     27 H           1.9982    0.3051    4.4687 H       1  UNL1        0.0000
     28 H           1.5111    2.7088    3.9663 H       1  UNL1        0.0000
     29 H           3.3398    1.2969    1.6593 H       1  UNL1        0.0000
     30 H           0.8214   -0.0840   -2.4414 H       1  UNL1        0.0000
     31 H          -1.7906   -0.6103   -2.5382 H       1  UNL1        0.0000
     32 H          -5.7064   -2.5804   -2.0197 H       1  UNL1        0.0000
     33 H          -6.1832   -0.1705   -2.5194 H       1  UNL1        0.0000
     34 H          -7.7171   -1.2216    0.1633 H       1  UNL1        0.0000
     35 H          -6.1764   -0.4977    2.1837 H       1  UNL1        0.0000
     36 H          -3.3807    0.1055    2.4278 H       1  UNL1        0.0000
     37 H          -1.0365    0.7621    3.3376 H       1  UNL1        0.0000
     38 H           5.7971    1.8370   -2.9200 H       1  UNL1        0.0000
     39 H           7.1349   -0.7810   -2.0059 H       1  UNL1        0.0000
     40 H           6.3279   -2.8291   -0.5701 H       1  UNL1        0.0000
@<TRIPOS>BOND
     1     1     2    1
     2     2     3    2
     3     3     4   ar
     4     4     5   ar
     5     5     6   ar
     6     6     7   ar
     7     7     8   ar
     8     8     9   ar
     9     9    10    1
    10    10    11    1
    11    11    12    2
    12    12    13    1
    13    13    14   ar
    14    14    15   ar
    15    15    16   ar
    16    16    17   ar
    17    17    18    2
    18     4    19    1
    19    19    20   ar
    20    20    21   ar
    21    21    22   ar
    22    22    23   ar
    23    23    24   ar
    24    24    25   ar
    25    25    26   ar
    26    18     1    1
    27    26    19   ar
    28    17     3   ar
    29    26    22   ar
    30    16     6   ar
    31    15     8   ar
    32    13     9   ar
    33     1    27    1
    34     1    28    1
    35     2    29    1
    36     5    30    1
    37     7    31    1
    38    10    32    1
    39    10    33    1
    40    11    34    1
    41    12    35    1
    42    14    36    1
    43    18    37    1
    44    21    38    1
    45    23    39    1
    46    24    40    1
