@<TRIPOS>MOLECULE
*****
 41 46 0 0 0
SMALL
GASTEIGER

@<TRIPOS>ATOM
      1 C           0.5846   -0.5761    0.0282 C.3     1  UNL1       -0.0008
      2 C          -0.5709    0.3024   -0.4217 C.2     1  UNL1       -0.0287
      3 C          -0.0604    1.2859   -1.1894 C.2     1  UNL1       -0.0569
      4 C           1.3702    1.1529   -1.3019 C.2     1  UNL1       -0.0574
      5 C           1.7815    0.0897   -0.5954 C.2     1  UNL1       -0.0353
      6 C           3.1304   -0.4259   -0.4448 C.ar    1  UNL1       -0.0124
      7 C           3.4648   -1.8060   -0.4227 C.ar    1  UNL1       -0.0537
      8 C           4.8015   -2.3202   -0.2679 C.ar    1  UNL1       -0.0606
      9 C           5.9482   -1.5132   -0.1052 C.ar    1  UNL1       -0.0526
     10 C           5.6010   -0.1696   -0.1089 C.ar    1  UNL1       -0.0000
     11 C           6.4717    0.8758    0.0569 C.ar    1  UNL1        0.0094
     12 N           5.7190    2.0291    0.0227 N.ar    1  UNL1       -0.3659
     13 C           4.3850    1.7251   -0.1581 C.ar    1  UNL1        0.0100
     14 C           4.2799    0.3581   -0.2674 C.ar    1  UNL1        0.0068
     15 C          -1.9620    0.1611   -0.1237 C.ar    1  UNL1        0.0245
     16 S          -3.1772    1.2477   -0.7303 S.2     1  UNL1       -0.0862
     17 C          -4.4840    0.4226    0.0194 C.ar    1  UNL1        0.0422
     18 C          -5.8424    0.8539   -0.1213 C.ar    1  UNL1        0.0464
     19 C          -6.3486    2.1336    0.0269 C.ar    1  UNL1        0.0430
     20 N          -7.7070    2.2817   -0.1885 N.ar    1  UNL1       -0.2551
     21 C          -8.2166    1.1145   -0.5118 C.ar    1  UNL1        0.0653
     22 S          -7.1200   -0.1998   -0.5804 S.2     1  UNL1       -0.0749
     23 C          -4.0170   -0.6403    0.7429 C.ar    1  UNL1        0.0352
     24 S          -4.8606   -1.8599    1.7868 S.2     1  UNL1       -0.0955
     25 C          -3.2646   -2.5307    2.0469 C.ar    1  UNL1       -0.0231
     26 C          -2.2069   -1.8773    1.4075 C.ar    1  UNL1       -0.0459
     27 C          -2.6263   -0.7558    0.6362 C.ar    1  UNL1        0.0043
     28 H           0.4531   -1.5978   -0.3433 H       1  UNL1        0.0362
     29 H           0.6679   -0.5815    1.1204 H       1  UNL1        0.0362
     30 H          -0.5943    2.0863   -1.6802 H       1  UNL1        0.0621
     31 H           1.9855    1.8142   -1.8932 H       1  UNL1        0.0621
     32 H           2.6699   -2.5411   -0.5498 H       1  UNL1        0.0624
     33 H           4.9326   -3.4029   -0.2784 H       1  UNL1        0.0618
     34 H           6.9462   -1.9084    0.0151 H       1  UNL1        0.0624
     35 H           7.5419    0.9173    0.2060 H       1  UNL1        0.0813
     36 H           6.0880    2.9647    0.1317 H       1  UNL1        0.1648
     37 H           3.6504    2.5174   -0.1809 H       1  UNL1        0.0813
     38 H          -5.7667    3.0062    0.2998 H       1  UNL1        0.0841
     39 H          -9.2690    0.9842   -0.7279 H       1  UNL1        0.0907
     40 H          -3.1937   -3.4010    2.6855 H       1  UNL1        0.0694
     41 H          -1.1852   -2.2167    1.5167 H       1  UNL1        0.0629
@<TRIPOS>BOND
     1     1     2    1
     2     2     3    2
     3     3     4    1
     4     4     5    2
     5     5     6    1
     6     6     7   ar
     7     7     8   ar
     8     8     9   ar
     9     9    10   ar
    10    10    11   ar
    11    11    12   ar
    12    12    13   ar
    13    13    14   ar
    14     2    15    1
    15    15    16   ar
    16    16    17   ar
    17    17    18    1
    18    18    19   ar
    19    19    20   ar
    20    20    21   ar
    21    21    22   ar
    22    17    23   ar
    23    23    24   ar
    24    24    25   ar
    25    25    26   ar
    26    26    27   ar
    27     5     1    1
    28    14     6   ar
    29    27    15   ar
    30    14    10   ar
    31    22    18   ar
    32    27    23   ar
    33     1    28    1
    34     1    29    1
    35     3    30    1
    36     4    31    1
    37     7    32    1
    38     8    33    1
    39     9    34    1
    40    11    35    1
    41    12    36    1
    42    13    37    1
    43    19    38    1
    44    21    39    1
    45    25    40    1
    46    26    41    1
