@<TRIPOS>MOLECULE
*****
 46 51 0 0 0
SMALL
GASTEIGER

@<TRIPOS>ATOM
      1 C          -1.0387    0.4135   -0.3185 C.3     1  UNL1       -0.0012
      2 C           0.0421    0.5603    0.7326 C.2     1  UNL1       -0.0345
      3 C          -0.5331    0.8833    1.9058 C.2     1  UNL1       -0.0574
      4 C          -1.9634    0.9637    1.7466 C.2     1  UNL1       -0.0574
      5 C          -2.2911    0.6745    0.4776 C.2     1  UNL1       -0.0353
      6 C          -3.6335    0.6717   -0.1132 C.ar    1  UNL1       -0.0138
      7 C          -3.8443    1.5116   -1.2199 C.ar    1  UNL1       -0.0537
      8 C          -5.0909    1.5903   -1.8324 C.ar    1  UNL1       -0.0606
      9 C          -6.1480    0.8297   -1.3466 C.ar    1  UNL1       -0.0540
     10 C          -5.9736   -0.0281   -0.2518 C.ar    1  UNL1       -0.0173
     11 C          -7.0567   -0.7926    0.2135 C.ar    1  UNL1       -0.0540
     12 C          -6.9118   -1.6667    1.2885 C.ar    1  UNL1       -0.0612
     13 C          -5.6773   -1.7940    1.9077 C.ar    1  UNL1       -0.0611
     14 C          -4.5913   -1.0390    1.4572 C.ar    1  UNL1       -0.0535
     15 C          -4.7062   -0.1272    0.3794 C.ar    1  UNL1       -0.0105
     16 C           1.4703    0.3927    0.4450 C.ar    1  UNL1       -0.0034
     17 C           2.4201    0.2323    1.4554 C.ar    1  UNL1       -0.0509
     18 C           3.7722    0.0624    1.1411 C.ar    1  UNL1       -0.0350
     19 C           4.1734    0.0548   -0.1909 C.ar    1  UNL1        0.0746
     20 N           3.2725    0.2246   -1.1888 N.ar    1  UNL1       -0.2543
     21 C           1.9645    0.3732   -0.8545 C.ar    1  UNL1        0.0357
     22 C           5.5577   -0.0953   -0.6320 C.ar    1  UNL1        0.0466
     23 C           6.0668    0.5096   -1.7928 C.ar    1  UNL1        0.0389
     24 N           7.3432    0.4487   -2.3073 N.ar    1  UNL1       -0.2603
     25 C           8.3045   -0.2838   -1.6844 C.ar    1  UNL1        0.0557
     26 C           7.9506   -0.9719   -0.5095 C.ar    1  UNL1        0.1185
     27 N           8.7611   -1.7442    0.2311 N.ar    1  UNL1       -0.1892
     28 S           7.8349   -2.3418    1.4707 S.2     1  UNL1        0.1165
     29 N           6.3802   -1.6188    1.1450 N.ar    1  UNL1       -0.1900
     30 C           6.5401   -0.8786    0.0296 C.ar    1  UNL1        0.1119
     31 H          -1.0460   -0.5982   -0.7384 H       1  UNL1        0.0362
     32 H          -0.9125    1.1518   -1.1178 H       1  UNL1        0.0362
     33 H          -0.0415    1.0746    2.8467 H       1  UNL1        0.0621
     34 H          -2.6441    1.2281    2.5426 H       1  UNL1        0.0621
     35 H          -3.0387    2.1326   -1.6044 H       1  UNL1        0.0624
     36 H          -5.2372    2.2464   -2.6864 H       1  UNL1        0.0618
     37 H          -7.1158    0.9080   -1.8382 H       1  UNL1        0.0624
     38 H          -8.0301   -0.7148   -0.2660 H       1  UNL1        0.0624
     39 H          -7.7599   -2.2521    1.6322 H       1  UNL1        0.0618
     40 H          -5.5516   -2.4820    2.7385 H       1  UNL1        0.0618
     41 H          -3.6363   -1.1842    1.9582 H       1  UNL1        0.0624
     42 H           2.1310    0.2256    2.5038 H       1  UNL1        0.0625
     43 H           4.4877   -0.0524    1.9478 H       1  UNL1        0.0639
     44 H           1.3090    0.4847   -1.7130 H       1  UNL1        0.0836
     45 H           5.3989    1.1244   -2.4017 H       1  UNL1        0.0837
     46 H           9.2925   -0.3074   -2.1231 H       1  UNL1        0.0852
@<TRIPOS>BOND
     1     1     2    1
     2     2     3    2
     3     3     4    1
     4     4     5    2
     5     5     6    1
     6     6     7   ar
     7     7     8   ar
     8     8     9   ar
     9     9    10   ar
    10    10    11   ar
    11    11    12   ar
    12    12    13   ar
    13    13    14   ar
    14    14    15   ar
    15     2    16    1
    16    16    17   ar
    17    17    18   ar
    18    18    19   ar
    19    19    20   ar
    20    20    21   ar
    21    19    22    1
    22    22    23   ar
    23    23    24   ar
    24    24    25   ar
    25    25    26   ar
    26    26    27   ar
    27    27    28   ar
    28    28    29   ar
    29    29    30   ar
    30     5     1    1
    31    15     6   ar
    32    21    16   ar
    33    30    22   ar
    34    15    10   ar
    35    30    26   ar
    36     1    31    1
    37     1    32    1
    38     3    33    1
    39     4    34    1
    40     7    35    1
    41     8    36    1
    42     9    37    1
    43    11    38    1
    44    12    39    1
    45    13    40    1
    46    14    41    1
    47    17    42    1
    48    18    43    1
    49    21    44    1
    50    23    45    1
    51    25    46    1
