@<TRIPOS>MOLECULE
*****
 42 46 0 0 0
SMALL
GASTEIGER

@<TRIPOS>ATOM
      1 C          -0.6775    0.7790   -0.3737 C.3     1  UNL1       -0.0007
      2 C           0.5319    0.1802    0.3270 C.2     1  UNL1       -0.0278
      3 C           0.1112   -0.3920    1.4728 C.2     1  UNL1       -0.0569
      4 C          -1.3140   -0.2335    1.6226 C.2     1  UNL1       -0.0574
      5 C          -1.7989    0.4285    0.5620 C.2     1  UNL1       -0.0353
      6 C          -3.1877    0.8262    0.3297 C.ar    1  UNL1       -0.0138
      7 C          -3.4690    2.2017    0.3403 C.ar    1  UNL1       -0.0537
      8 C          -4.7670    2.6631    0.1481 C.ar    1  UNL1       -0.0606
      9 C          -5.8011    1.7545   -0.0582 C.ar    1  UNL1       -0.0540
     10 C          -5.5540    0.3738   -0.0813 C.ar    1  UNL1       -0.0173
     11 C          -6.6114   -0.5257   -0.2985 C.ar    1  UNL1       -0.0540
     12 C          -6.3888   -1.9010   -0.3385 C.ar    1  UNL1       -0.0612
     13 C          -5.1036   -2.3958   -0.1656 C.ar    1  UNL1       -0.0611
     14 C          -4.0422   -1.5145    0.0530 C.ar    1  UNL1       -0.0535
     15 C          -4.2351   -0.1128    0.1099 C.ar    1  UNL1       -0.0105
     16 C           1.8886    0.1962   -0.1136 C.ar    1  UNL1        0.0358
     17 C           2.4043    0.7421   -1.2789 C.ar    1  UNL1        0.0430
     18 N           3.7659    0.6272   -1.4751 N.ar    1  UNL1       -0.2452
     19 C           4.3161   -0.0125   -0.4582 C.ar    1  UNL1        0.1269
     20 S           3.2028   -0.4924    0.7647 S.2     1  UNL1       -0.0660
     21 C           5.7575   -0.3110   -0.3406 C.ar    1  UNL1        0.0959
     22 C           6.6424    0.0845   -1.3426 C.ar    1  UNL1       -0.0337
     23 C           7.9969   -0.2104   -1.2055 C.ar    1  UNL1       -0.0582
     24 C           8.4327   -0.8902   -0.0755 C.ar    1  UNL1       -0.0436
     25 C           7.4922   -1.2488    0.8749 C.ar    1  UNL1        0.0283
     26 N           6.1731   -0.9767    0.7693 N.ar    1  UNL1       -0.2529
     27 H          -0.5625    1.8624   -0.4841 H       1  UNL1        0.0362
     28 H          -0.8254    0.3194   -1.3569 H       1  UNL1        0.0362
     29 H           0.7095   -0.9070    2.2105 H       1  UNL1        0.0621
     30 H          -1.8779   -0.5929    2.4708 H       1  UNL1        0.0621
     31 H          -2.6760    2.9252    0.5176 H       1  UNL1        0.0624
     32 H          -4.9745    3.7297    0.1653 H       1  UNL1        0.0618
     33 H          -6.8099    2.1353   -0.2038 H       1  UNL1        0.0624
     34 H          -7.6252   -0.1577   -0.4422 H       1  UNL1        0.0624
     35 H          -7.2181   -2.5823   -0.5088 H       1  UNL1        0.0618
     36 H          -4.9206   -3.4665   -0.2019 H       1  UNL1        0.0618
     37 H          -3.0482   -1.9395    0.1735 H       1  UNL1        0.0624
     38 H           1.8160    1.2465   -2.0363 H       1  UNL1        0.0841
     39 H           6.2824    0.6153   -2.2192 H       1  UNL1        0.0640
     40 H           8.7025    0.0891   -1.9752 H       1  UNL1        0.0619
     41 H           9.4800   -1.1351    0.0620 H       1  UNL1        0.0633
     42 H           7.7830   -1.7816    1.7759 H       1  UNL1        0.0830
@<TRIPOS>BOND
     1     1     2    1
     2     2     3    2
     3     3     4    1
     4     4     5    2
     5     5     6    1
     6     6     7   ar
     7     7     8   ar
     8     8     9   ar
     9     9    10   ar
    10    10    11   ar
    11    11    12   ar
    12    12    13   ar
    13    13    14   ar
    14    14    15   ar
    15     2    16    1
    16    16    17   ar
    17    17    18   ar
    18    18    19   ar
    19    19    20   ar
    20    19    21    1
    21    21    22   ar
    22    22    23   ar
    23    23    24   ar
    24    24    25   ar
    25    25    26   ar
    26     5     1    1
    27    15     6   ar
    28    20    16   ar
    29    26    21   ar
    30    15    10   ar
    31     1    27    1
    32     1    28    1
    33     3    29    1
    34     4    30    1
    35     7    31    1
    36     8    32    1
    37     9    33    1
    38    11    34    1
    39    12    35    1
    40    13    36    1
    41    14    37    1
    42    17    38    1
    43    22    39    1
    44    23    40    1
    45    24    41    1
    46    25    42    1
