@<TRIPOS>MOLECULE
*****
 43 48 0 0 0
SMALL
GASTEIGER

@<TRIPOS>ATOM
      1 C          -1.4953    0.5711   -0.1790 C.3     1  UNL1       -0.0012
      2 C          -0.4707   -0.1418    0.6786 C.2     1  UNL1       -0.0345
      3 C          -1.1179   -0.8728    1.6050 C.2     1  UNL1       -0.0574
      4 C          -2.5423   -0.7167    1.4513 C.2     1  UNL1       -0.0574
      5 C          -2.7961    0.1007    0.4174 C.2     1  UNL1       -0.0353
      6 C          -4.0890    0.5501   -0.0677 C.ar    1  UNL1       -0.0133
      7 C          -4.3927    1.9085   -0.3358 C.ar    1  UNL1       -0.0537
      8 C          -5.6624    2.3725   -0.8104 C.ar    1  UNL1       -0.0606
      9 C          -6.7592    1.5282   -1.0773 C.ar    1  UNL1       -0.0535
     10 C          -6.4553    0.1894   -0.8331 C.ar    1  UNL1       -0.0103
     11 C          -7.3670   -0.8151   -1.0451 C.ar    1  UNL1       -0.0166
     12 S          -6.6906   -2.3531   -0.6917 S.2     1  UNL1       -0.1039
     13 C          -5.1731   -1.6684   -0.2587 C.ar    1  UNL1       -0.0160
     14 C          -5.1799   -0.2948   -0.3506 C.ar    1  UNL1       -0.0035
     15 C           0.9775   -0.0094    0.4757 C.ar    1  UNL1       -0.0034
     16 C           1.9101   -0.6548    1.2934 C.ar    1  UNL1       -0.0508
     17 C           3.2804   -0.5000    1.0666 C.ar    1  UNL1       -0.0346
     18 C           3.7007    0.3066    0.0172 C.ar    1  UNL1        0.0782
     19 N           2.8315    0.9474   -0.7946 N.ar    1  UNL1       -0.2538
     20 C           1.5085    0.7756   -0.5477 C.ar    1  UNL1        0.0357
     21 C           5.1153    0.5039   -0.2842 C.ar    1  UNL1        0.0457
     22 S           5.7312    2.0856   -0.6281 S.2     1  UNL1       -0.0934
     23 C           7.3494    1.5312   -0.8272 C.ar    1  UNL1       -0.0094
     24 C           7.4143    0.1811   -0.6418 C.ar    1  UNL1        0.0270
     25 S           8.8107   -0.9530   -0.7252 S.2     1  UNL1       -0.0961
     26 C           7.6248   -2.1977   -0.3584 C.ar    1  UNL1       -0.0231
     27 C           6.3041   -1.7654   -0.1888 C.ar    1  UNL1       -0.0458
     28 C           6.1630   -0.3585   -0.3429 C.ar    1  UNL1        0.0054
     29 H          -1.3858    1.6577   -0.0955 H       1  UNL1        0.0362
     30 H          -1.4177    0.2652   -1.2282 H       1  UNL1        0.0362
     31 H          -0.6854   -1.4968    2.3719 H       1  UNL1        0.0621
     32 H          -3.2689   -1.1836    2.0998 H       1  UNL1        0.0621
     33 H          -3.6269    2.6637   -0.1551 H       1  UNL1        0.0624
     34 H          -5.7852    3.4443   -0.9716 H       1  UNL1        0.0618
     35 H          -7.7097    1.8989   -1.4375 H       1  UNL1        0.0624
     36 H          -8.3876   -0.7428   -1.3948 H       1  UNL1        0.0699
     37 H          -4.3699   -2.3293    0.0335 H       1  UNL1        0.0700
     38 H           1.5940   -1.2830    2.1211 H       1  UNL1        0.0625
     39 H           3.9957   -0.9939    1.7156 H       1  UNL1        0.0639
     40 H           0.8712    1.3199   -1.2392 H       1  UNL1        0.0836
     41 H           8.1645    2.1988   -1.0695 H       1  UNL1        0.0705
     42 H           7.9858   -3.2152   -0.2929 H       1  UNL1        0.0694
     43 H           5.4962   -2.4542    0.0252 H       1  UNL1        0.0629
@<TRIPOS>BOND
     1     1     2    1
     2     2     3    2
     3     3     4    1
     4     4     5    2
     5     5     6    1
     6     6     7   ar
     7     7     8   ar
     8     8     9   ar
     9     9    10   ar
    10    10    11   ar
    11    11    12   ar
    12    12    13   ar
    13    13    14   ar
    14     2    15    1
    15    15    16   ar
    16    16    17   ar
    17    17    18   ar
    18    18    19   ar
    19    19    20   ar
    20    18    21    1
    21    21    22   ar
    22    22    23   ar
    23    23    24   ar
    24    24    25   ar
    25    25    26   ar
    26    26    27   ar
    27    27    28   ar
    28     5     1    1
    29    14     6   ar
    30    20    15   ar
    31    28    21   ar
    32    14    10   ar
    33    28    24   ar
    34     1    29    1
    35     1    30    1
    36     3    31    1
    37     4    32    1
    38     7    33    1
    39     8    34    1
    40     9    35    1
    41    11    36    1
    42    13    37    1
    43    16    38    1
    44    17    39    1
    45    20    40    1
    46    23    41    1
    47    26    42    1
    48    27    43    1
