@<TRIPOS>MOLECULE
*****
 31 34 0 0 0
SMALL
GASTEIGER

@<TRIPOS>ATOM
      1 C          -0.0574   -0.0138   -0.1372 C.3     1  UNL1       -0.0008
      2 C          -1.0663    1.1141   -0.2464 C.2     1  UNL1       -0.0286
      3 C          -0.3831    2.2667   -0.3707 C.2     1  UNL1       -0.0569
      4 C           1.0365    2.0153   -0.3552 C.2     1  UNL1       -0.0574
      5 C           1.2713    0.6988   -0.2208 C.2     1  UNL1       -0.0359
      6 C           2.5672    0.0044   -0.1586 C.ar    1  UNL1       -0.0215
      7 C           2.6305   -1.3909   -0.0143 C.ar    1  UNL1       -0.0543
      8 C           3.8582   -2.0596    0.0457 C.ar    1  UNL1       -0.0612
      9 C           5.0480   -1.3440   -0.0376 C.ar    1  UNL1       -0.0617
     10 C           5.0097    0.0389   -0.1808 C.ar    1  UNL1       -0.0612
     11 C           3.7809    0.7054   -0.2406 C.ar    1  UNL1       -0.0543
     12 C          -2.4886    1.0225   -0.2264 C.ar    1  UNL1        0.0265
     13 S          -3.5606    2.4129   -0.3620 S.2     1  UNL1       -0.0926
     14 C          -5.0104    1.4777   -0.2546 C.ar    1  UNL1        0.0192
     15 C          -4.6505    0.1911   -0.1244 C.ar    1  UNL1        0.1424
     16 O          -5.4918   -0.8718   -0.0084 O.2     1  UNL1       -0.4624
     17 C          -4.5635   -1.8911    0.0900 C.ar    1  UNL1        0.0932
     18 C          -3.2316   -1.4607    0.0356 C.ar    1  UNL1       -0.0150
     19 C          -3.3010   -0.0608   -0.1085 C.ar    1  UNL1        0.0346
     20 H          -0.1684   -0.5351    0.8201 H       1  UNL1        0.0362
     21 H          -0.1816   -0.7199   -0.9658 H       1  UNL1        0.0362
     22 H          -0.7852    3.2642   -0.4708 H       1  UNL1        0.0621
     23 H           1.7638    2.8077   -0.4426 H       1  UNL1        0.0621
     24 H           1.7260   -1.9892    0.0546 H       1  UNL1        0.0624
     25 H           3.8815   -3.1405    0.1577 H       1  UNL1        0.0618
     26 H           6.0020   -1.8622    0.0089 H       1  UNL1        0.0618
     27 H           5.9356    0.6046   -0.2466 H       1  UNL1        0.0618
     28 H           3.7965    1.7860   -0.3529 H       1  UNL1        0.0624
     29 H          -6.0040    1.8994   -0.2907 H       1  UNL1        0.0731
     30 H          -5.0034   -2.8744    0.1948 H       1  UNL1        0.1030
     31 H          -2.3602   -2.0958    0.0947 H       1  UNL1        0.0655
@<TRIPOS>BOND
     1     1     2    1
     2     2     3    2
     3     3     4    1
     4     4     5    2
     5     5     6    1
     6     6     7   ar
     7     7     8   ar
     8     8     9   ar
     9     9    10   ar
    10    10    11   ar
    11     2    12    1
    12    12    13   ar
    13    13    14   ar
    14    14    15   ar
    15    15    16   ar
    16    16    17   ar
    17    17    18   ar
    18    18    19   ar
    19     5     1    1
    20    11     6   ar
    21    19    12   ar
    22    19    15   ar
    23     1    20    1
    24     1    21    1
    25     3    22    1
    26     4    23    1
    27     7    24    1
    28     8    25    1
    29     9    26    1
    30    10    27    1
    31    11    28    1
    32    14    29    1
    33    17    30    1
    34    18    31    1
