@<TRIPOS>MOLECULE
*****
 45 49 0 0 0
SMALL
GASTEIGER

@<TRIPOS>ATOM
      1 C           2.9474   -0.3820   -0.1773 C.3     1  UNL1        0.0000
      2 C           1.9660    0.6606   -0.6640 C.2     1  UNL1        0.0000
      3 C           2.6607    1.7192   -1.1166 C.2     1  UNL1        0.0000
      4 C           4.0754    1.4817   -0.9760 C.2     1  UNL1        0.0000
      5 C           4.2871    0.2702   -0.4331 C.2     1  UNL1        0.0000
      6 C           5.5697   -0.3712   -0.1165 C.ar    1  UNL1        0.0000
      7 C           5.6312   -1.6496    0.4506 C.ar    1  UNL1        0.0000
      8 C           6.8627   -2.2377    0.7424 C.ar    1  UNL1        0.0000
      9 C           8.0149   -1.5281    0.4581 C.ar    1  UNL1        0.0000
     10 N           8.0126   -0.2964   -0.0868 N.ar    1  UNL1        0.0000
     11 C           6.7979    0.2466   -0.3582 C.ar    1  UNL1        0.0000
     12 C           0.5061    0.4796   -0.6199 C.ar    1  UNL1        0.0000
     13 C          -0.0575   -0.7024   -0.1137 C.ar    1  UNL1        0.0000
     14 C          -1.4452   -0.8842   -0.0667 C.ar    1  UNL1        0.0000
     15 C          -2.3038    0.1152   -0.5287 C.ar    1  UNL1        0.0000
     16 C          -1.7596    1.2982   -1.0321 C.ar    1  UNL1        0.0000
     17 C          -0.3713    1.4756   -1.0771 C.ar    1  UNL1        0.0000
     18 C          -3.7630   -0.0705   -0.4724 C.ar    1  UNL1        0.0000
     19 C          -4.3719   -0.6314   -1.5442 C.ar    1  UNL1        0.0000
     20 C          -5.8140   -0.8657   -1.6025 C.ar    1  UNL1        0.0000
     21 C          -6.6341   -0.5367   -0.5870 C.ar    1  UNL1        0.0000
     22 C          -6.0656    0.0693    0.5999 C.ar    1  UNL1        0.0000
     23 C          -6.7610    0.4490    1.6877 C.2     1  UNL1        0.0000
     24 SI         -5.6186    1.1841    2.9765 Si      1  UNL1        0.0000
     25 C          -4.1852    0.8788    1.8157 C.2     1  UNL1        0.0000
     26 C          -4.6034    0.3105    0.6666 C.ar    1  UNL1        0.0000
     27 H           2.8081   -0.5814    0.8912 H       1  UNL1        0.0000
     28 H           2.8491   -1.3098   -0.7520 H       1  UNL1        0.0000
     29 H           2.2677    2.6341   -1.5326 H       1  UNL1        0.0000
     30 H           4.8145    2.2074   -1.2796 H       1  UNL1        0.0000
     31 H           4.7286   -2.2105    0.6755 H       1  UNL1        0.0000
     32 H           6.9181   -3.2274    1.1816 H       1  UNL1        0.0000
     33 H           8.9966   -1.9429    0.6668 H       1  UNL1        0.0000
     34 H           6.8597    1.2388   -0.7955 H       1  UNL1        0.0000
     35 H           0.5690   -1.5092    0.2573 H       1  UNL1        0.0000
     36 H          -1.8511   -1.8098    0.3354 H       1  UNL1        0.0000
     37 H          -2.4123    2.0914   -1.3901 H       1  UNL1        0.0000
     38 H           0.0049    2.4131   -1.4772 H       1  UNL1        0.0000
     39 H          -3.8012   -0.9343   -2.4186 H       1  UNL1        0.0000
     40 H          -6.2088   -1.3208   -2.5055 H       1  UNL1        0.0000
     41 H          -7.7019   -0.7145   -0.6404 H       1  UNL1        0.0000
     42 H          -7.8233    0.3676    1.8512 H       1  UNL1        0.0000
     43 H          -5.8750    2.6279    3.1980 H       1  UNL1        0.0000
     44 H          -5.5449    0.3528    4.2025 H       1  UNL1        0.0000
     45 H          -3.1754    1.1449    2.0852 H       1  UNL1        0.0000
@<TRIPOS>BOND
     1     1     2    1
     2     2     3    2
     3     3     4    1
     4     4     5    2
     5     5     6    1
     6     6     7   ar
     7     7     8   ar
     8     8     9   ar
     9     9    10   ar
    10    10    11   ar
    11     2    12    1
    12    12    13   ar
    13    13    14   ar
    14    14    15   ar
    15    15    16   ar
    16    16    17   ar
    17    15    18    1
    18    18    19   ar
    19    19    20   ar
    20    20    21   ar
    21    21    22   ar
    22    22    23    2
    23    23    24    1
    24    24    25    1
    25    25    26    2
    26     5     1    1
    27    11     6   ar
    28    17    12   ar
    29    26    18   ar
    30    26    22   ar
    31     1    27    1
    32     1    28    1
    33     3    29    1
    34     4    30    1
    35     7    31    1
    36     8    32    1
    37     9    33    1
    38    11    34    1
    39    13    35    1
    40    14    36    1
    41    16    37    1
    42    17    38    1
    43    19    39    1
    44    20    40    1
    45    21    41    1
    46    23    42    1
    47    24    43    1
    48    24    44    1
    49    25    45    1
