@<TRIPOS>MOLECULE
*****
 45 50 0 0 0
SMALL
GASTEIGER

@<TRIPOS>ATOM
      1 C           2.8008   -0.1506    0.5259 C.3     1  UNL1        0.0000
      2 C           1.8799   -0.0516   -0.6778 C.2     1  UNL1        0.0000
      3 C           2.6459    0.1710   -1.7614 C.2     1  UNL1        0.0000
      4 C           4.0385    0.2360   -1.3938 C.2     1  UNL1        0.0000
      5 C           4.1733    0.0536   -0.0695 C.2     1  UNL1        0.0000
      6 C           5.4073    0.0427    0.7259 C.ar    1  UNL1        0.0000
      7 C           5.3855   -0.1558    2.1115 C.ar    1  UNL1        0.0000
      8 C           6.5723   -0.1622    2.8457 C.ar    1  UNL1        0.0000
      9 C           7.7641    0.0316    2.1721 C.ar    1  UNL1        0.0000
     10 N           7.8417    0.2266    0.8416 N.ar    1  UNL1        0.0000
     11 C           6.6688    0.2271    0.1574 C.ar    1  UNL1        0.0000
     12 C           0.4663   -0.1676   -0.7162 C.ar    1  UNL1        0.0000
     13 S          -0.4848   -0.5351    0.6970 S.2     1  UNL1        0.0000
     14 C          -2.0113   -0.5009   -0.1547 C.ar    1  UNL1        0.0000
     15 C          -3.2529   -0.7240    0.5132 C.ar    1  UNL1        0.0000
     16 C          -3.4926   -1.9649    1.0054 C.ar    1  UNL1        0.0000
     17 C          -4.7370   -2.3315    1.6797 C.ar    1  UNL1        0.0000
     18 C          -5.7445   -1.4557    1.8473 C.ar    1  UNL1        0.0000
     19 C          -5.5821   -0.1058    1.3499 C.ar    1  UNL1        0.0000
     20 C          -6.4995    0.8732    1.4552 C.2     1  UNL1        0.0000
     21 SI         -5.8634    2.4598    0.6943 Si      1  UNL1        0.0000
     22 C          -4.2765    1.5644    0.2701 C.2     1  UNL1        0.0000
     23 C          -4.3184    0.2772    0.6728 C.ar    1  UNL1        0.0000
     24 C          -1.7248   -0.2058   -1.4450 C.ar    1  UNL1        0.0000
     25 C          -2.3901   -0.0087   -2.6669 C.ar    1  UNL1        0.0000
     26 C          -1.3762    0.2721   -3.5882 C.ar    1  UNL1        0.0000
     27 O          -0.1042    0.2699   -3.0484 O.2     1  UNL1        0.0000
     28 C          -0.3958   -0.0284   -1.7487 C.ar    1  UNL1        0.0000
     29 H           2.7171   -1.1374    0.9949 H       1  UNL1        0.0000
     30 H           2.5652    0.6327    1.2550 H       1  UNL1        0.0000
     31 H           2.3200    0.2903   -2.7842 H       1  UNL1        0.0000
     32 H           4.8179    0.4091   -2.1204 H       1  UNL1        0.0000
     33 H           4.4513   -0.3082    2.6448 H       1  UNL1        0.0000
     34 H           6.5631   -0.3150    3.9191 H       1  UNL1        0.0000
     35 H           8.7137    0.0351    2.6991 H       1  UNL1        0.0000
     36 H           6.7943    0.3885   -0.9093 H       1  UNL1        0.0000
     37 H          -2.7597   -2.7623    0.9069 H       1  UNL1        0.0000
     38 H          -4.8257   -3.3508    2.0432 H       1  UNL1        0.0000
     39 H          -6.6639   -1.7381    2.3474 H       1  UNL1        0.0000
     40 H          -7.4753    0.8138    1.9098 H       1  UNL1        0.0000
     41 H          -5.6617    3.5287    1.7017 H       1  UNL1        0.0000
     42 H          -6.6293    2.8511   -0.5137 H       1  UNL1        0.0000
     43 H          -3.4667    2.0727   -0.2284 H       1  UNL1        0.0000
     44 H          -3.4493   -0.0579   -2.8753 H       1  UNL1        0.0000
     45 H          -1.4013    0.4909   -4.6478 H       1  UNL1        0.0000
@<TRIPOS>BOND
     1     1     2    1
     2     2     3    2
     3     3     4    1
     4     4     5    2
     5     5     6    1
     6     6     7   ar
     7     7     8   ar
     8     8     9   ar
     9     9    10   ar
    10    10    11   ar
    11     2    12    1
    12    12    13   ar
    13    13    14   ar
    14    14    15    1
    15    15    16   ar
    16    16    17   ar
    17    17    18   ar
    18    18    19   ar
    19    19    20    2
    20    20    21    1
    21    21    22    1
    22    22    23    2
    23    14    24   ar
    24    24    25   ar
    25    25    26   ar
    26    26    27   ar
    27    27    28   ar
    28     5     1    1
    29    11     6   ar
    30    28    12   ar
    31    23    15   ar
    32    28    24   ar
    33    23    19   ar
    34     1    29    1
    35     1    30    1
    36     3    31    1
    37     4    32    1
    38     7    33    1
    39     8    34    1
    40     9    35    1
    41    11    36    1
    42    16    37    1
    43    17    38    1
    44    18    39    1
    45    20    40    1
    46    21    41    1
    47    21    42    1
    48    22    43    1
    49    25    44    1
    50    26    45    1
