@<TRIPOS>MOLECULE
*****
 40 45 0 0 0
SMALL
GASTEIGER

@<TRIPOS>ATOM
      1 C           2.0380    0.4308   -0.3207 C.3     1  UNL1       -0.0007
      2 C           1.1657   -0.7605    0.0202 C.2     1  UNL1       -0.0282
      3 C           1.9649   -1.7650    0.4217 C.2     1  UNL1       -0.0569
      4 C           3.3469   -1.3599    0.3596 C.2     1  UNL1       -0.0574
      5 C           3.4350   -0.0885   -0.0681 C.2     1  UNL1       -0.0344
      6 C           4.6432    0.7200   -0.2757 C.ar    1  UNL1       -0.0034
      7 C           5.9294    0.2137   -0.0550 C.ar    1  UNL1       -0.0514
      8 C           7.0523    1.0152   -0.2651 C.ar    1  UNL1       -0.0430
      9 C           6.8618    2.3155   -0.6950 C.ar    1  UNL1        0.0276
     10 N           5.6473    2.8522   -0.9228 N.ar    1  UNL1       -0.2627
     11 C           4.5767    2.0457   -0.7088 C.ar    1  UNL1        0.0350
     12 C          -0.2470   -0.8597   -0.0004 C.ar    1  UNL1        0.0306
     13 S          -1.2618    0.4220    0.5510 S.2     1  UNL1       -0.0852
     14 C          -2.7263   -0.4165    0.1948 C.ar    1  UNL1        0.0485
     15 C          -4.0304    0.1547    0.4818 C.ar    1  UNL1        0.1062
     16 N          -4.9922   -0.6925    0.9756 N.ar    1  UNL1       -0.2521
     17 C          -6.2491   -0.2416    1.2766 C.ar    1  UNL1        0.0304
     18 C          -6.7364    1.0520    1.1297 C.ar    1  UNL1       -0.0153
     19 C          -5.7909    1.9515    0.6026 C.ar    1  UNL1        0.1034
     20 N          -6.0166    3.2511    0.3537 N.ar    1  UNL1       -0.1907
     21 S          -4.6064    3.8636   -0.2695 S.2     1  UNL1        0.1165
     22 N          -3.6502    2.5105   -0.2550 N.ar    1  UNL1       -0.1886
     23 C          -4.3900    1.5091    0.2577 C.ar    1  UNL1        0.1262
     24 C          -2.3768   -1.6236   -0.3190 C.ar    1  UNL1        0.0061
     25 C          -3.1287   -2.7302   -0.7969 C.ar    1  UNL1       -0.0458
     26 C          -2.3231   -3.7665   -1.2769 C.ar    1  UNL1       -0.0231
     27 S          -0.5907   -3.4996   -1.2052 S.2     1  UNL1       -0.0955
     28 C          -1.0139   -1.9000   -0.4602 C.ar    1  UNL1        0.0344
     29 H           1.8103    1.2816    0.3307 H       1  UNL1        0.0362
     30 H           1.9016    0.7156   -1.3697 H       1  UNL1        0.0362
     31 H           1.6602   -2.7421    0.7675 H       1  UNL1        0.0621
     32 H           4.1553   -2.0212    0.6310 H       1  UNL1        0.0621
     33 H           6.0821   -0.8074    0.2815 H       1  UNL1        0.0624
     34 H           8.0515    0.6297   -0.0964 H       1  UNL1        0.0633
     35 H           7.7040    2.9778   -0.8725 H       1  UNL1        0.0829
     36 H           3.6266    2.5334   -0.9088 H       1  UNL1        0.0835
     37 H          -6.9058   -1.0170    1.6718 H       1  UNL1        0.0830
     38 H          -7.7454    1.3402    1.3872 H       1  UNL1        0.0655
     39 H          -4.2109   -2.7867   -0.7997 H       1  UNL1        0.0629
     40 H          -2.6601   -4.7073   -1.6902 H       1  UNL1        0.0694
@<TRIPOS>BOND
     1     1     2    1
     2     2     3    2
     3     3     4    1
     4     4     5    2
     5     5     6    1
     6     6     7   ar
     7     7     8   ar
     8     8     9   ar
     9     9    10   ar
    10    10    11   ar
    11     2    12    1
    12    12    13   ar
    13    13    14   ar
    14    14    15    1
    15    15    16   ar
    16    16    17   ar
    17    17    18   ar
    18    18    19   ar
    19    19    20   ar
    20    20    21   ar
    21    21    22   ar
    22    22    23   ar
    23    14    24   ar
    24    24    25   ar
    25    25    26   ar
    26    26    27   ar
    27    27    28   ar
    28     5     1    1
    29    11     6   ar
    30    28    12   ar
    31    23    15   ar
    32    28    24   ar
    33    23    19   ar
    34     1    29    1
    35     1    30    1
    36     3    31    1
    37     4    32    1
    38     7    33    1
    39     8    34    1
    40     9    35    1
    41    11    36    1
    42    17    37    1
    43    18    38    1
    44    25    39    1
    45    26    40    1
