@<TRIPOS>MOLECULE
*****
 41 46 0 0 0
SMALL
GASTEIGER

@<TRIPOS>ATOM
      1 C           2.3972    0.0449    0.3535 C.3     1  UNL1       -0.0007
      2 C           1.4004    0.0592   -0.7928 C.2     1  UNL1       -0.0286
      3 C           2.0963    0.1150   -1.9424 C.2     1  UNL1       -0.0569
      4 C           3.5130    0.1407   -1.6757 C.2     1  UNL1       -0.0574
      5 C           3.7325    0.1014   -0.3508 C.2     1  UNL1       -0.0344
      6 C           5.0175    0.1086    0.3600 C.ar    1  UNL1       -0.0034
      7 C           6.2443    0.1615   -0.3120 C.ar    1  UNL1       -0.0514
      8 C           7.4438    0.1666    0.4013 C.ar    1  UNL1       -0.0430
      9 C           7.3886    0.1182    1.7821 C.ar    1  UNL1        0.0276
     10 N           6.2363    0.0663    2.4779 N.ar    1  UNL1       -0.2627
     11 C           5.0883    0.0629    1.7538 C.ar    1  UNL1        0.0350
     12 C          -0.0230    0.0224   -0.7450 C.ar    1  UNL1        0.0271
     13 S          -0.8346   -0.0530    0.8059 S.2     1  UNL1       -0.0836
     14 C          -2.4425   -0.0694    0.1430 C.ar    1  UNL1        0.0699
     15 C          -3.6456   -0.1278    0.9353 C.ar    1  UNL1        0.0387
     16 S          -3.5901   -0.1907    2.6948 S.2     1  UNL1       -0.0933
     17 C          -5.3038   -0.2397    2.8855 C.ar    1  UNL1        0.0002
     18 C          -5.8527   -0.2084    1.6579 C.ar    1  UNL1        0.0542
     19 N          -7.1884   -0.2311    1.3796 N.ar    1  UNL1       -0.3602
     20 C          -7.1758   -0.1800   -0.0083 C.ar    1  UNL1        0.0028
     21 C          -5.8578   -0.1293   -0.5094 C.ar    1  UNL1       -0.0355
     22 C          -4.9637   -0.1480    0.6026 C.ar    1  UNL1        0.0150
     23 C          -2.3038   -0.0179   -1.2000 C.ar    1  UNL1        0.1506
     24 O          -3.2971   -0.0092   -2.1337 O.2     1  UNL1       -0.4617
     25 C          -2.5512    0.0508   -3.2901 C.ar    1  UNL1        0.0932
     26 C          -1.1711    0.0775   -3.0765 C.ar    1  UNL1       -0.0150
     27 C          -1.0104    0.0313   -1.6770 C.ar    1  UNL1        0.0353
     28 H           2.2549    0.9185    0.9994 H       1  UNL1        0.0362
     29 H           2.2989   -0.8762    0.9388 H       1  UNL1        0.0362
     30 H           1.7081    0.1392   -2.9477 H       1  UNL1        0.0621
     31 H           4.2496    0.1853   -2.4633 H       1  UNL1        0.0621
     32 H           6.2912    0.1996   -1.3962 H       1  UNL1        0.0624
     33 H           8.3977    0.2074   -0.1123 H       1  UNL1        0.0633
     34 H           8.2945    0.1199    2.3812 H       1  UNL1        0.0829
     35 H           4.1942    0.0200    2.3696 H       1  UNL1        0.0835
     36 H          -5.7834   -0.2868    3.8529 H       1  UNL1        0.0714
     37 H          -7.9611   -0.2739    2.0326 H       1  UNL1        0.1653
     38 H          -8.1156   -0.1835   -0.5454 H       1  UNL1        0.0807
     39 H          -5.6103   -0.0847   -1.5604 H       1  UNL1        0.0639
     40 H          -3.1447    0.0684   -4.1949 H       1  UNL1        0.1030
     41 H          -0.4208    0.1240   -3.8508 H       1  UNL1        0.0655
@<TRIPOS>BOND
     1     1     2    1
     2     2     3    2
     3     3     4    1
     4     4     5    2
     5     5     6    1
     6     6     7   ar
     7     7     8   ar
     8     8     9   ar
     9     9    10   ar
    10    10    11   ar
    11     2    12    1
    12    12    13   ar
    13    13    14   ar
    14    14    15    1
    15    15    16   ar
    16    16    17   ar
    17    17    18   ar
    18    18    19   ar
    19    19    20   ar
    20    20    21   ar
    21    21    22   ar
    22    14    23   ar
    23    23    24   ar
    24    24    25   ar
    25    25    26   ar
    26    26    27   ar
    27     5     1    1
    28    11     6   ar
    29    27    12   ar
    30    22    15   ar
    31    27    23   ar
    32    22    18   ar
    33     1    28    1
    34     1    29    1
    35     3    30    1
    36     4    31    1
    37     7    32    1
    38     8    33    1
    39     9    34    1
    40    11    35    1
    41    17    36    1
    42    19    37    1
    43    20    38    1
    44    21    39    1
    45    25    40    1
    46    26    41    1
