@<TRIPOS>MOLECULE
*****
 42 47 0 0 0
SMALL
GASTEIGER

@<TRIPOS>ATOM
      1 C          -0.8970   -0.3694   -0.1342 C.3     1  UNL1       -0.0012
      2 C          -2.1623    0.3737   -0.4866 C.2     1  UNL1       -0.0353
      3 C          -1.8425    1.6000   -0.9282 C.2     1  UNL1       -0.0574
      4 C          -0.4137    1.7779   -0.8787 C.2     1  UNL1       -0.0573
      5 C           0.1769    0.6594   -0.4179 C.2     1  UNL1       -0.0323
      6 C           1.6105    0.4430   -0.2142 C.ar    1  UNL1        0.0248
      7 C           2.5948    1.4230   -0.3994 C.ar    1  UNL1        0.0379
      8 N           3.9514    1.3122   -0.2324 N.ar    1  UNL1       -0.2516
      9 C           4.5231    0.1359    0.1681 C.ar    1  UNL1        0.1056
     10 C           5.9766    0.0792    0.3202 C.ar    1  UNL1        0.0397
     11 C           6.8407   -1.0027    0.2551 C.ar    1  UNL1       -0.0454
     12 C           8.2054   -0.6451    0.4639 C.ar    1  UNL1       -0.0541
     13 C           8.3537    0.7037    0.6822 C.ar    1  UNL1       -0.0237
     14 S           6.8593    1.5269    0.6335 S.2     1  UNL1       -0.0951
     15 C           3.6624   -0.9677    0.4038 C.ar    1  UNL1        0.1268
     16 N           3.9955   -2.2092    0.8071 N.ar    1  UNL1       -0.1886
     17 S           2.5954   -3.0774    0.9258 S.2     1  UNL1        0.1166
     18 N           1.4917   -1.9374    0.4691 N.ar    1  UNL1       -0.1901
     19 C           2.1623   -0.8000    0.2048 C.ar    1  UNL1        0.1108
     20 C          -3.4780   -0.2341   -0.3821 C.ar    1  UNL1       -0.0124
     21 C          -3.7523   -1.6022   -0.6494 C.ar    1  UNL1       -0.0537
     22 C          -5.0534   -2.2114   -0.5453 C.ar    1  UNL1       -0.0606
     23 C          -6.2213   -1.5246   -0.1500 C.ar    1  UNL1       -0.0526
     24 C          -5.9323   -0.1963    0.1289 C.ar    1  UNL1       -0.0000
     25 C          -6.8354    0.7356    0.5699 C.ar    1  UNL1        0.0094
     26 N          -6.1366    1.9074    0.7587 N.ar    1  UNL1       -0.3659
     27 C          -4.8045    1.7263    0.4464 C.ar    1  UNL1        0.0100
     28 C          -4.6470    0.4263    0.0253 C.ar    1  UNL1        0.0068
     29 H          -0.7738   -1.2498   -0.7735 H       1  UNL1        0.0362
     30 H          -0.9055   -0.6581    0.9224 H       1  UNL1        0.0362
     31 H          -2.5244    2.3532   -1.2927 H       1  UNL1        0.0621
     32 H           0.0575    2.7006   -1.1817 H       1  UNL1        0.0621
     33 H           2.3086    2.4262   -0.7153 H       1  UNL1        0.0836
     34 H           6.5169   -2.0183    0.0607 H       1  UNL1        0.0629
     35 H           9.0329   -1.3437    0.4526 H       1  UNL1        0.0623
     36 H           9.2688    1.2493    0.8669 H       1  UNL1        0.0693
     37 H          -2.9353   -2.2476   -0.9732 H       1  UNL1        0.0624
     38 H          -5.1371   -3.2713   -0.7877 H       1  UNL1        0.0618
     39 H          -7.1918   -1.9917   -0.0692 H       1  UNL1        0.0624
     40 H          -7.8949    0.6826    0.7796 H       1  UNL1        0.0813
     41 H          -6.5376    2.7725    1.0963 H       1  UNL1        0.1648
     42 H          -4.1078    2.5431    0.5684 H       1  UNL1        0.0813
@<TRIPOS>BOND
     1     1     2    1
     2     2     3    2
     3     3     4    1
     4     4     5    2
     5     5     6    1
     6     6     7   ar
     7     7     8   ar
     8     8     9   ar
     9     9    10    1
    10    10    11   ar
    11    11    12   ar
    12    12    13   ar
    13    13    14   ar
    14     9    15   ar
    15    15    16   ar
    16    16    17   ar
    17    17    18   ar
    18    18    19   ar
    19     2    20    1
    20    20    21   ar
    21    21    22   ar
    22    22    23   ar
    23    23    24   ar
    24    24    25   ar
    25    25    26   ar
    26    26    27   ar
    27    27    28   ar
    28     5     1    1
    29    19     6   ar
    30    28    20   ar
    31    14    10   ar
    32    19    15   ar
    33    28    24   ar
    34     1    29    1
    35     1    30    1
    36     3    31    1
    37     4    32    1
    38     7    33    1
    39    11    34    1
    40    12    35    1
    41    13    36    1
    42    21    37    1
    43    22    38    1
    44    23    39    1
    45    25    40    1
    46    26    41    1
    47    27    42    1
