@<TRIPOS>MOLECULE
*****
 46 53 0 0 0
SMALL
GASTEIGER

@<TRIPOS>ATOM
      1 SI          1.1869   -3.8714    0.1838 Si      1  UNL1        0.0000
      2 C           2.1649   -2.2915    0.2426 C.2     1  UNL1        0.0000
      3 C           1.3591   -1.2081    0.2312 C.ar    1  UNL1        0.0000
      4 C           1.8368    0.1846    0.3672 C.ar    1  UNL1        0.0000
      5 C           0.9312    1.1880    0.4515 C.ar    1  UNL1        0.0000
      6 C          -0.4400    0.8402    0.3324 C.ar    1  UNL1        0.0000
      7 N          -1.4297    1.7878    0.4017 N.ar    1  UNL1        0.0000
      8 C          -2.6234    1.1678    0.1720 C.ar    1  UNL1        0.0000
      9 C          -4.0482    1.7728    0.1181 C.ar    1  UNL1        0.0000
     10 S          -4.5222    3.3734    0.3830 S.2     1  UNL1        0.0000
     11 C          -6.1811    2.9727    0.0943 C.ar    1  UNL1        0.0000
     12 C          -6.3631    1.6332   -0.2078 C.ar    1  UNL1        0.0000
     13 C          -5.1228    0.9798   -0.1820 C.ar    1  UNL1        0.0000
     14 C          -4.8186   -0.3827   -0.4542 C.ar    1  UNL1        0.0000
     15 C          -5.6878   -1.3625   -0.8359 C.ar    1  UNL1        0.0000
     16 O          -4.9688   -2.5107   -1.0628 O.2     1  UNL1        0.0000
     17 C          -3.6428   -2.2297   -0.8131 C.ar    1  UNL1        0.0000
     18 C          -3.5290   -0.9327   -0.4019 C.ar    1  UNL1        0.0000
     19 C          -2.3744   -0.1724   -0.0459 C.ar    1  UNL1        0.0000
     20 C          -1.0088   -0.4190    0.1296 C.ar    1  UNL1        0.0000
     21 C          -0.1076   -1.5320    0.1354 C.ar    1  UNL1        0.0000
     22 C          -0.3759   -2.8500    0.1630 C.2     1  UNL1        0.0000
     23 C           3.2481    0.5619    0.4702 C.ar    1  UNL1        0.0000
     24 C           3.9196    0.8050    1.6924 C.ar    1  UNL1        0.0000
     25 C           5.3035    1.1630    1.7818 C.ar    1  UNL1        0.0000
     26 C           6.1544    1.3115    0.6641 C.ar    1  UNL1        0.0000
     27 C           5.4872    1.0663   -0.5369 C.ar    1  UNL1        0.0000
     28 C           6.1104    1.1468   -1.7574 C.ar    1  UNL1        0.0000
     29 S           5.0204    0.7878   -3.0377 S.2     1  UNL1        0.0000
     30 C           3.7117    0.5255   -1.9527 C.ar    1  UNL1        0.0000
     31 C           4.0938    0.7051   -0.6431 C.ar    1  UNL1        0.0000
     32 H           1.3841   -4.6210   -1.0801 H       1  UNL1        0.0000
     33 H           1.3195   -4.6717    1.4249 H       1  UNL1        0.0000
     34 H           3.2404   -2.3055    0.3240 H       1  UNL1        0.0000
     35 H           1.2321    2.2243    0.5725 H       1  UNL1        0.0000
     36 H          -1.3054    2.7785    0.5605 H       1  UNL1        0.0000
     37 H          -6.9339    3.7465    0.1575 H       1  UNL1        0.0000
     38 H          -7.3264    1.1922   -0.4275 H       1  UNL1        0.0000
     39 H          -6.7510   -1.4333   -1.0130 H       1  UNL1        0.0000
     40 H          -2.9735   -3.0488   -1.0129 H       1  UNL1        0.0000
     41 H          -1.3292   -3.3380    0.2108 H       1  UNL1        0.0000
     42 H           3.3577    0.7102    2.6226 H       1  UNL1        0.0000
     43 H           5.7236    1.3275    2.7749 H       1  UNL1        0.0000
     44 H           7.1981    1.5818    0.7551 H       1  UNL1        0.0000
     45 H           7.1392    1.3938   -1.9801 H       1  UNL1        0.0000
     46 H           2.7413    0.2532   -2.3457 H       1  UNL1        0.0000
@<TRIPOS>BOND
     1     1     2    1
     2     2     3    2
     3     3     4   ar
     4     4     5   ar
     5     5     6   ar
     6     6     7   ar
     7     7     8   ar
     8     8     9   ar
     9     9    10   ar
    10    10    11   ar
    11    11    12   ar
    12    12    13   ar
    13    13    14   ar
    14    14    15   ar
    15    15    16   ar
    16    16    17   ar
    17    17    18   ar
    18    18    19   ar
    19    19    20   ar
    20    20    21   ar
    21    21    22    2
    22     4    23    1
    23    23    24   ar
    24    24    25   ar
    25    25    26   ar
    26    26    27   ar
    27    27    28   ar
    28    28    29   ar
    29    29    30   ar
    30    30    31   ar
    31    22     1    1
    32    31    23   ar
    33    21     3   ar
    34    31    27   ar
    35    20     6   ar
    36    19     8   ar
    37    13     9   ar
    38    18    14   ar
    39     1    32    1
    40     1    33    1
    41     2    34    1
    42     5    35    1
    43     7    36    1
    44    11    37    1
    45    12    38    1
    46    15    39    1
    47    17    40    1
    48    22    41    1
    49    24    42    1
    50    25    43    1
    51    26    44    1
    52    28    45    1
    53    30    46    1
