@<TRIPOS>MOLECULE
*****
 40 45 0 0 0
SMALL
GASTEIGER

@<TRIPOS>ATOM
      1 C          -0.8726    0.3404    0.1722 C.3     1  UNL1       -0.0012
      2 C          -2.1715    0.2261   -0.5856 C.2     1  UNL1       -0.0353
      3 C          -1.9202   -0.1795   -1.8398 C.2     1  UNL1       -0.0574
      4 C          -0.5046   -0.3918   -2.0035 C.2     1  UNL1       -0.0573
      5 C           0.1434   -0.1059   -0.8582 C.2     1  UNL1       -0.0323
      6 C           1.5849   -0.2001   -0.6172 C.ar    1  UNL1        0.0248
      7 C           2.5129   -0.6894   -1.5455 C.ar    1  UNL1        0.0379
      8 N           3.8714   -0.8141   -1.4080 N.ar    1  UNL1       -0.2500
      9 C           4.5066   -0.4399   -0.2499 C.ar    1  UNL1        0.1239
     10 C           5.9604   -0.5737   -0.1514 C.ar    1  UNL1        0.1285
     11 N           6.7378   -0.0020    0.7512 N.ar    1  UNL1       -0.2457
     12 C           8.0582   -0.3455    0.5470 C.ar    1  UNL1        0.0355
     13 C           8.2948   -1.1811   -0.5192 C.ar    1  UNL1       -0.0042
     14 S           6.8170   -1.5536   -1.2963 S.2     1  UNL1       -0.0741
     15 C           3.7070    0.0728    0.8028 C.ar    1  UNL1        0.1283
     16 N           4.0953    0.4824    2.0245 N.ar    1  UNL1       -0.1885
     17 S           2.7484    0.9830    2.8333 S.2     1  UNL1        0.1166
     18 N           1.5888    0.6992    1.6916 N.ar    1  UNL1       -0.1901
     19 C           2.2012    0.1941    0.6038 C.ar    1  UNL1        0.1109
     20 C          -3.4537    0.5782    0.0004 C.ar    1  UNL1       -0.0133
     21 C          -3.6633    1.7508    0.7695 C.ar    1  UNL1       -0.0537
     22 C          -4.9191    2.1214    1.3509 C.ar    1  UNL1       -0.0606
     23 C          -6.0963    1.3550    1.2355 C.ar    1  UNL1       -0.0535
     24 C          -5.8867    0.1900    0.4984 C.ar    1  UNL1       -0.0103
     25 C          -6.8893   -0.7218    0.2778 C.ar    1  UNL1       -0.0166
     26 S          -6.3189   -2.0663   -0.6244 S.2     1  UNL1       -0.1039
     27 C          -4.7255   -1.4244   -0.7133 C.ar    1  UNL1       -0.0160
     28 C          -4.6260   -0.1968   -0.0980 C.ar    1  UNL1       -0.0035
     29 H          -0.8794   -0.3248    1.0424 H       1  UNL1        0.0362
     30 H          -0.6927    1.3757    0.4800 H       1  UNL1        0.0362
     31 H          -2.6416   -0.3155   -2.6321 H       1  UNL1        0.0621
     32 H          -0.0830   -0.7312   -2.9376 H       1  UNL1        0.0621
     33 H           2.1727   -1.0329   -2.5226 H       1  UNL1        0.0836
     34 H           8.8160    0.0476    1.2139 H       1  UNL1        0.0835
     35 H           9.2365   -1.5782   -0.8687 H       1  UNL1        0.0709
     36 H          -2.8277    2.4351    0.9222 H       1  UNL1        0.0624
     37 H          -4.9636    3.0541    1.9147 H       1  UNL1        0.0618
     38 H          -7.0348    1.6516    1.6847 H       1  UNL1        0.0624
     39 H          -7.9212   -0.6870    0.5990 H       1  UNL1        0.0699
     40 H          -3.9616   -2.0017   -1.2133 H       1  UNL1        0.0700
@<TRIPOS>BOND
     1     1     2    1
     2     2     3    2
     3     3     4    1
     4     4     5    2
     5     5     6    1
     6     6     7   ar
     7     7     8   ar
     8     8     9   ar
     9     9    10    1
    10    10    11   ar
    11    11    12   ar
    12    12    13   ar
    13    13    14   ar
    14     9    15   ar
    15    15    16   ar
    16    16    17   ar
    17    17    18   ar
    18    18    19   ar
    19     2    20    1
    20    20    21   ar
    21    21    22   ar
    22    22    23   ar
    23    23    24   ar
    24    24    25   ar
    25    25    26   ar
    26    26    27   ar
    27    27    28   ar
    28     5     1    1
    29    19     6   ar
    30    28    20   ar
    31    14    10   ar
    32    19    15   ar
    33    28    24   ar
    34     1    29    1
    35     1    30    1
    36     3    31    1
    37     4    32    1
    38     7    33    1
    39    12    34    1
    40    13    35    1
    41    21    36    1
    42    22    37    1
    43    23    38    1
    44    25    39    1
    45    27    40    1
