@<TRIPOS>MOLECULE
*****
 35 38 0 0 0
SMALL
GASTEIGER

@<TRIPOS>ATOM
      1 C          -1.4859   -0.2017   -0.0022 C.3     1  UNL1        0.0000
      2 C          -2.8832    0.3038   -0.2924 C.2     1  UNL1        0.0000
      3 C          -2.7851    1.5333   -0.8253 C.2     1  UNL1        0.0000
      4 C          -1.4002    1.9216   -0.9267 C.2     1  UNL1        0.0000
      5 C          -0.6029    0.9436   -0.4595 C.2     1  UNL1        0.0000
      6 C           0.8164    1.0596   -0.4403 C.ar    1  UNL1        0.0000
      7 C           1.6607    2.0770   -0.8454 C.ar    1  UNL1        0.0000
      8 N           3.0139    1.8598   -0.6832 N.ar    1  UNL1        0.0000
      9 C           3.2481    0.6734   -0.1503 C.ar    1  UNL1        0.0000
     10 S           1.7959   -0.2189    0.1697 S.2     1  UNL1        0.0000
     11 C           4.5412    0.1619    0.1383 C.2     1  UNL1        0.0000
     12 SI          4.9478   -1.5025    0.8924 Si      1  UNL1        0.0000
     13 C           6.7675   -1.0441    0.7792 C.2     1  UNL1        0.0000
     14 C           6.9173    0.1815    0.2459 C.2     1  UNL1        0.0000
     15 C           5.6760    0.8532   -0.1110 C.2     1  UNL1        0.0000
     16 C          -4.0585   -0.4783   -0.0086 C.2     1  UNL1        0.0000
     17 SI         -5.8395    0.1172   -0.3583 Si      1  UNL1        0.0000
     18 C          -6.4523   -1.5162    0.3263 C.2     1  UNL1        0.0000
     19 C          -5.4269   -2.2922    0.7174 C.2     1  UNL1        0.0000
     20 C          -4.1029   -1.7171    0.5317 C.2     1  UNL1        0.0000
     21 H          -1.3507   -0.3921    1.0684 H       1  UNL1        0.0000
     22 H          -1.2694   -1.1108   -0.5743 H       1  UNL1        0.0000
     23 H          -3.5876    2.1795   -1.1477 H       1  UNL1        0.0000
     24 H          -1.0997    2.8774   -1.3299 H       1  UNL1        0.0000
     25 H           1.3423    3.0189   -1.2749 H       1  UNL1        0.0000
     26 H           4.5073   -1.6393    2.3038 H       1  UNL1        0.0000
     27 H           4.6195   -2.6510    0.0103 H       1  UNL1        0.0000
     28 H           7.5468   -1.7113    1.1115 H       1  UNL1        0.0000
     29 H           7.8757    0.6591    0.0821 H       1  UNL1        0.0000
     30 H           5.6958    1.8462   -0.5478 H       1  UNL1        0.0000
     31 H          -6.2304    1.2698    0.4919 H       1  UNL1        0.0000
     32 H          -6.1154    0.2621   -1.8098 H       1  UNL1        0.0000
     33 H          -7.5029   -1.7538    0.3779 H       1  UNL1        0.0000
     34 H          -5.5481   -3.2805    1.1442 H       1  UNL1        0.0000
     35 H          -3.2309   -2.2891    0.8256 H       1  UNL1        0.0000
@<TRIPOS>BOND
     1     1     2    1
     2     2     3    2
     3     3     4    1
     4     4     5    2
     5     5     6    1
     6     6     7   ar
     7     7     8   ar
     8     8     9   ar
     9     9    10   ar
    10     9    11    1
    11    11    12    1
    12    12    13    1
    13    13    14    2
    14    14    15    1
    15     2    16    1
    16    16    17    1
    17    17    18    1
    18    18    19    2
    19    19    20    1
    20     5     1    1
    21    10     6   ar
    22    15    11    2
    23    20    16    2
    24     1    21    1
    25     1    22    1
    26     3    23    1
    27     4    24    1
    28     7    25    1
    29    12    26    1
    30    12    27    1
    31    13    28    1
    32    14    29    1
    33    15    30    1
    34    17    31    1
    35    17    32    1
    36    18    33    1
    37    19    34    1
    38    20    35    1
