@<TRIPOS>MOLECULE
*****
 45 51 0 0 0
SMALL
GASTEIGER

@<TRIPOS>ATOM
      1 C           2.4656    0.1017    0.2843 C.3     1  UNL1        0.0003
      2 C           3.5620    1.0164    0.7945 C.2     1  UNL1       -0.0337
      3 C           2.9875    2.0616    1.4190 C.2     1  UNL1       -0.0573
      4 C           1.5539    1.9372    1.3778 C.2     1  UNL1       -0.0559
      5 C           1.2131    0.8126    0.7272 C.2     1  UNL1       -0.0155
      6 C          -0.1475    0.3521    0.4868 C.ar    1  UNL1        0.0954
      7 N          -1.1882    1.1138    0.9553 N.ar    1  UNL1       -0.2524
      8 C          -2.4919    0.7377    0.7625 C.ar    1  UNL1        0.0382
      9 C          -2.9725   -0.3949    0.0970 C.ar    1  UNL1        0.0290
     10 C          -4.3778   -0.7170   -0.0595 C.ar    1  UNL1       -0.0061
     11 C          -4.9811   -1.8965    0.4564 C.ar    1  UNL1       -0.0533
     12 C          -6.3723   -2.2176    0.3370 C.ar    1  UNL1       -0.0606
     13 C          -7.3153   -1.3966   -0.3127 C.ar    1  UNL1       -0.0535
     14 C          -6.7272   -0.2437   -0.8305 C.ar    1  UNL1       -0.0103
     15 C          -7.4512    0.6981   -1.5188 C.ar    1  UNL1       -0.0166
     16 S          -6.4490    1.9873   -2.0498 S.2     1  UNL1       -0.1039
     17 C          -5.0420    1.2771   -1.3595 C.ar    1  UNL1       -0.0160
     18 C          -5.3258    0.0926   -0.7171 C.ar    1  UNL1       -0.0031
     19 C          -1.9303   -1.2210   -0.3972 C.ar    1  UNL1        0.1111
     20 N          -2.0819   -2.3785   -1.0678 N.ar    1  UNL1       -0.1900
     21 S          -0.5669   -2.9362   -1.4270 S.2     1  UNL1        0.1166
     22 N           0.3634   -1.7508   -0.7474 N.ar    1  UNL1       -0.1886
     23 C          -0.4731   -0.8463   -0.2051 C.ar    1  UNL1        0.1260
     24 C           4.9997    0.7731    0.6193 C.ar    1  UNL1        0.0066
     25 C           6.0000    1.6554    1.1035 C.ar    1  UNL1       -0.0521
     26 C           7.3930    1.4493    0.9504 C.ar    1  UNL1       -0.0590
     27 C           7.9317    0.3354    0.2948 C.ar    1  UNL1       -0.0335
     28 C           6.9979   -0.5932   -0.2180 C.ar    1  UNL1        0.1005
     29 N           7.3158   -1.7191   -0.8753 N.ar    1  UNL1       -0.1908
     30 S           5.8836   -2.4549   -1.2650 S.2     1  UNL1        0.1165
     31 N           4.7997   -1.3841   -0.6202 N.ar    1  UNL1       -0.1902
     32 C           5.5022   -0.3823   -0.0596 C.ar    1  UNL1        0.1072
     33 H           2.4999    0.0251   -0.8077 H       1  UNL1        0.0362
     34 H           2.5338   -0.8860    0.7526 H       1  UNL1        0.0362
     35 H           3.4756    2.8968    1.8967 H       1  UNL1        0.0621
     36 H           0.8736    2.6554    1.8127 H       1  UNL1        0.0621
     37 H          -3.2022    1.4381    1.2055 H       1  UNL1        0.0836
     38 H          -4.3505   -2.6162    0.9828 H       1  UNL1        0.0624
     39 H          -6.7176   -3.1553    0.7743 H       1  UNL1        0.0618
     40 H          -8.3619   -1.6580   -0.3950 H       1  UNL1        0.0624
     41 H          -8.5077    0.7070   -1.7493 H       1  UNL1        0.0699
     42 H          -4.0944    1.7832   -1.4797 H       1  UNL1        0.0700
     43 H           5.7009    2.5606    1.6324 H       1  UNL1        0.0624
     44 H           8.0763    2.1927    1.3623 H       1  UNL1        0.0618
     45 H           8.9989    0.1877    0.1833 H       1  UNL1        0.0640
@<TRIPOS>BOND
     1     1     2    1
     2     2     3    2
     3     3     4    1
     4     4     5    2
     5     5     6    1
     6     6     7   ar
     7     7     8   ar
     8     8     9   ar
     9     9    10    1
    10    10    11   ar
    11    11    12   ar
    12    12    13   ar
    13    13    14   ar
    14    14    15   ar
    15    15    16   ar
    16    16    17   ar
    17    17    18   ar
    18     9    19   ar
    19    19    20   ar
    20    20    21   ar
    21    21    22   ar
    22    22    23   ar
    23     2    24    1
    24    24    25   ar
    25    25    26   ar
    26    26    27   ar
    27    27    28   ar
    28    28    29   ar
    29    29    30   ar
    30    30    31   ar
    31    31    32   ar
    32     5     1    1
    33    23     6   ar
    34    32    24   ar
    35    18    10   ar
    36    23    19   ar
    37    32    28   ar
    38    18    14   ar
    39     1    33    1
    40     1    34    1
    41     3    35    1
    42     4    36    1
    43     8    37    1
    44    11    38    1
    45    12    39    1
    46    13    40    1
    47    15    41    1
    48    17    42    1
    49    25    43    1
    50    26    44    1
    51    27    45    1
