@<TRIPOS>MOLECULE
*****
 44 50 0 0 0
SMALL
GASTEIGER

@<TRIPOS>ATOM
      1 C          -2.3844   -0.4668    0.1778 C.3     1  UNL1        0.0000
      2 C          -3.5757   -1.4020    0.3178 C.2     1  UNL1        0.0000
      3 C          -3.1085   -2.6133    0.6767 C.2     1  UNL1        0.0000
      4 C          -1.6719   -2.5869    0.7965 C.2     1  UNL1        0.0000
      5 C          -1.2134   -1.3572    0.5143 C.2     1  UNL1        0.0000
      6 C           0.1442   -0.8292    0.4954 C.ar    1  UNL1        0.0000
      7 N           0.3122    0.4895    0.1611 N.ar    1  UNL1        0.0000
      8 C           1.5553    1.0661    0.1202 C.ar    1  UNL1        0.0000
      9 C           2.7836    0.4583    0.3843 C.ar    1  UNL1        0.0000
     10 C           4.0649    1.1403    0.3147 C.ar    1  UNL1        0.0000
     11 S           4.3134    2.5772    1.2563 S.2     1  UNL1        0.0000
     12 C           5.9243    2.8002    0.6798 C.ar    1  UNL1        0.0000
     13 C           6.2611    1.8116   -0.2033 C.ar    1  UNL1        0.0000
     14 C           7.4700    1.5973   -0.9380 C.2     1  UNL1        0.0000
     15 C           7.4599    0.5136   -1.7441 C.2     1  UNL1        0.0000
     16 SI          5.7905   -0.4202   -1.6344 Si      1  UNL1        0.0000
     17 C           5.2052    0.8780   -0.3914 C.ar    1  UNL1        0.0000
     18 C           2.6710   -0.9088    0.7363 C.ar    1  UNL1        0.0000
     19 N           3.6778   -1.7456    1.0493 N.ar    1  UNL1        0.0000
     20 S           3.0046   -3.2161    1.3900 S.2     1  UNL1        0.0000
     21 N           1.4039   -2.8825    1.1470 N.ar    1  UNL1        0.0000
     22 C           1.3122   -1.5849    0.7974 C.ar    1  UNL1        0.0000
     23 C          -4.9607   -1.0941    0.1149 C.ar    1  UNL1        0.0000
     24 S          -6.2210   -2.2774    0.3147 S.2     1  UNL1        0.0000
     25 C          -7.4712   -1.1813   -0.0827 C.ar    1  UNL1        0.0000
     26 C          -6.9712    0.0600   -0.3646 C.ar    1  UNL1        0.0000
     27 N          -7.7638    1.1125   -0.7104 N.ar    1  UNL1        0.0000
     28 C          -7.0131    2.2245   -0.9360 C.ar    1  UNL1        0.0000
     29 C          -5.6192    2.2900   -0.8310 C.ar    1  UNL1        0.0000
     30 N          -4.8086    1.2525   -0.4882 N.ar    1  UNL1        0.0000
     31 C          -5.5322    0.1159   -0.2531 C.ar    1  UNL1        0.0000
     32 H          -2.3094   -0.0868   -0.8472 H       1  UNL1        0.0000
     33 H          -2.4620    0.3670    0.8844 H       1  UNL1        0.0000
     34 H          -3.6766   -3.5129    0.8628 H       1  UNL1        0.0000
     35 H          -1.0966   -3.4567    1.0760 H       1  UNL1        0.0000
     36 H           1.5247    2.1188   -0.1641 H       1  UNL1        0.0000
     37 H           6.5147    3.6389    1.0211 H       1  UNL1        0.0000
     38 H           8.3221    2.2613   -0.8487 H       1  UNL1        0.0000
     39 H           8.2507    0.1586   -2.3849 H       1  UNL1        0.0000
     40 H           6.0058   -1.7826   -1.0887 H       1  UNL1        0.0000
     41 H           5.0738   -0.3635   -2.9333 H       1  UNL1        0.0000
     42 H          -8.5047   -1.4953   -0.0909 H       1  UNL1        0.0000
     43 H          -7.5800    3.1077   -1.2170 H       1  UNL1        0.0000
     44 H          -5.1017    3.2243   -1.0304 H       1  UNL1        0.0000
@<TRIPOS>BOND
     1     1     2    1
     2     2     3    2
     3     3     4    1
     4     4     5    2
     5     5     6    1
     6     6     7   ar
     7     7     8   ar
     8     8     9   ar
     9     9    10    1
    10    10    11   ar
    11    11    12   ar
    12    12    13   ar
    13    13    14    1
    14    14    15    2
    15    15    16    1
    16    16    17    1
    17     9    18   ar
    18    18    19   ar
    19    19    20   ar
    20    20    21   ar
    21    21    22   ar
    22     2    23    1
    23    23    24   ar
    24    24    25   ar
    25    25    26   ar
    26    26    27   ar
    27    27    28   ar
    28    28    29   ar
    29    29    30   ar
    30    30    31   ar
    31     5     1    1
    32    22     6   ar
    33    31    23   ar
    34    17    10   ar
    35    22    18   ar
    36    31    26   ar
    37    17    13   ar
    38     1    32    1
    39     1    33    1
    40     3    34    1
    41     4    35    1
    42     8    36    1
    43    12    37    1
    44    14    38    1
    45    15    39    1
    46    16    40    1
    47    16    41    1
    48    25    42    1
    49    28    43    1
    50    29    44    1
