@<TRIPOS>MOLECULE
*****
 36 40 0 0 0
SMALL
GASTEIGER

@<TRIPOS>ATOM
      1 C          -0.8399   -0.0213    0.2586 C.3     1  UNL1        0.0016
      2 C           0.0461   -0.5271    1.3819 C.2     1  UNL1       -0.0197
      3 C          -0.7484   -0.9478    2.3827 C.2     1  UNL1       -0.0560
      4 C          -2.1356   -0.7689    2.0324 C.2     1  UNL1       -0.0558
      5 C          -2.2288   -0.2327    0.8046 C.2     1  UNL1       -0.0155
      6 C          -3.3938    0.1344    0.0124 C.ar    1  UNL1        0.0954
      7 N          -3.1786    0.6723   -1.2339 N.ar    1  UNL1       -0.2530
      8 C          -4.2176    1.0448   -2.0441 C.ar    1  UNL1        0.0304
      9 C          -5.5755    0.9506   -1.7674 C.ar    1  UNL1       -0.0153
     10 C          -5.8511    0.4048   -0.5005 C.ar    1  UNL1        0.1034
     11 N          -7.0802    0.2096    0.0028 N.ar    1  UNL1       -0.1907
     12 S          -6.8727   -0.4499    1.5099 S.2     1  UNL1        0.1165
     13 N          -5.2195   -0.5176    1.5922 N.ar    1  UNL1       -0.1886
     14 C          -4.7431   -0.0228    0.4335 C.ar    1  UNL1        0.1254
     15 C           1.4581   -0.5940    1.4744 C.ar    1  UNL1        0.0433
     16 C           2.3523   -1.0287    2.4340 C.ar    1  UNL1       -0.0360
     17 C           3.6615   -0.8334    1.9289 C.ar    1  UNL1       -0.0328
     18 C           3.5545   -0.2811    0.6652 C.ar    1  UNL1        0.0845
     19 N           2.2064   -0.1455    0.4119 N.ar    1  UNL1       -0.3520
     20 C           4.5621    0.1207   -0.3011 C.ar    1  UNL1        0.1791
     21 N           5.8365   -0.0536    0.0447 N.ar    1  UNL1       -0.2145
     22 C           6.6991    0.3362   -0.8876 C.ar    1  UNL1        0.1201
     23 N           6.3904    0.8585   -2.0740 N.ar    1  UNL1       -0.2241
     24 C           5.0817    0.9774   -2.2909 C.ar    1  UNL1        0.1201
     25 N           4.1111    0.6296   -1.4504 N.ar    1  UNL1       -0.2145
     26 H          -0.6446    1.0388    0.0622 H       1  UNL1        0.0363
     27 H          -0.6758   -0.6057   -0.6537 H       1  UNL1        0.0363
     28 H          -0.4353   -1.3653    3.3283 H       1  UNL1        0.0621
     29 H          -2.9430   -1.0421    2.6949 H       1  UNL1        0.0621
     30 H          -3.8961    1.4551   -3.0016 H       1  UNL1        0.0830
     31 H          -6.3466    1.2649   -2.4556 H       1  UNL1        0.0655
     32 H           2.0961   -1.4444    3.3997 H       1  UNL1        0.0639
     33 H           4.5914   -1.0696    2.4312 H       1  UNL1        0.0640
     34 H           1.8457    0.2374   -0.4519 H       1  UNL1        0.1660
     35 H           7.7535    0.2182   -0.6619 H       1  UNL1        0.1048
     36 H           4.7799    1.3981   -3.2442 H       1  UNL1        0.1048
@<TRIPOS>BOND
     1     1     2    1
     2     2     3    2
     3     3     4    1
     4     4     5    2
     5     5     6    1
     6     6     7   ar
     7     7     8   ar
     8     8     9   ar
     9     9    10   ar
    10    10    11   ar
    11    11    12   ar
    12    12    13   ar
    13    13    14   ar
    14     2    15    1
    15    15    16   ar
    16    16    17   ar
    17    17    18   ar
    18    18    19   ar
    19    18    20    1
    20    20    21   ar
    21    21    22   ar
    22    22    23   ar
    23    23    24   ar
    24    24    25   ar
    25     5     1    1
    26    14     6   ar
    27    19    15   ar
    28    25    20   ar
    29    14    10   ar
    30     1    26    1
    31     1    27    1
    32     3    28    1
    33     4    29    1
    34     8    30    1
    35     9    31    1
    36    16    32    1
    37    17    33    1
    38    19    34    1
    39    22    35    1
    40    24    36    1
