@<TRIPOS>MOLECULE
*****
 42 48 0 0 0
SMALL
GASTEIGER

@<TRIPOS>ATOM
      1 C           2.3006    0.0232    0.1467 C.3     1  UNL1        0.0003
      2 C           1.0300   -0.8029    0.0996 C.2     1  UNL1       -0.0323
      3 C           1.3670   -2.1062    0.1025 C.2     1  UNL1       -0.0573
      4 C           2.7992   -2.2459    0.1491 C.2     1  UNL1       -0.0559
      5 C           3.3745   -1.0324    0.1758 C.2     1  UNL1       -0.0155
      6 C           4.8066   -0.7739    0.2252 C.ar    1  UNL1        0.0954
      7 N           5.6685   -1.8453    0.2482 N.ar    1  UNL1       -0.2530
      8 C           7.0259   -1.6738    0.2948 C.ar    1  UNL1        0.0304
      9 C           7.7213   -0.4714    0.3247 C.ar    1  UNL1       -0.0153
     10 C           6.8839    0.6587    0.3027 C.ar    1  UNL1        0.1034
     11 N           7.3070    1.9327    0.3238 N.ar    1  UNL1       -0.1907
     12 S           5.9476    2.8817    0.2833 S.2     1  UNL1        0.1165
     13 N           4.7644    1.7231    0.2373 N.ar    1  UNL1       -0.1886
     14 C           5.3807    0.5262    0.2515 C.ar    1  UNL1        0.1254
     15 C          -0.3241   -0.2458    0.0586 C.ar    1  UNL1        0.0248
     16 C          -1.4948   -1.0119    0.0162 C.ar    1  UNL1        0.0379
     17 N          -2.7975   -0.5821   -0.0236 N.ar    1  UNL1       -0.2515
     18 C          -3.1117    0.7577   -0.0260 C.ar    1  UNL1        0.1076
     19 C          -4.5282    1.1019   -0.0697 C.ar    1  UNL1        0.0635
     20 S          -5.1818    2.7127   -0.0793 S.2     1  UNL1       -0.0924
     21 C          -6.8340    2.1846   -0.1367 C.ar    1  UNL1       -0.0145
     22 C          -6.8247    0.8382   -0.1461 C.ar    1  UNL1        0.0073
     23 C          -7.7031   -0.2721   -0.1825 C.ar    1  UNL1       -0.0361
     24 C          -6.9015   -1.4339   -0.1647 C.ar    1  UNL1        0.0028
     25 N          -5.5469   -1.1190   -0.1185 N.ar    1  UNL1       -0.3597
     26 C          -5.5817    0.2476   -0.1099 C.ar    1  UNL1        0.0630
     27 C          -2.0279    1.6784    0.0143 C.ar    1  UNL1        0.1269
     28 N          -2.0707    3.0237    0.0205 N.ar    1  UNL1       -0.1886
     29 S          -0.5178    3.5755    0.0740 S.2     1  UNL1        0.1166
     30 N           0.3068    2.1468    0.0926 N.ar    1  UNL1       -0.1901
     31 C          -0.5971    1.1500    0.0577 C.ar    1  UNL1        0.1108
     32 H           2.3940    0.6448   -0.7503 H       1  UNL1        0.0362
     33 H           2.3342    0.6338    1.0553 H       1  UNL1        0.0362
     34 H           0.7118   -2.9635    0.0756 H       1  UNL1        0.0621
     35 H           3.3137   -3.1963    0.1604 H       1  UNL1        0.0621
     36 H           7.5814   -2.6118    0.3084 H       1  UNL1        0.0830
     37 H           8.7991   -0.4079    0.3613 H       1  UNL1        0.0655
     38 H          -1.4272   -2.0999    0.0121 H       1  UNL1        0.0836
     39 H          -7.6556    2.8854   -0.1583 H       1  UNL1        0.0700
     40 H          -8.7843   -0.2595   -0.2174 H       1  UNL1        0.0639
     41 H          -7.1965   -2.4751   -0.1817 H       1  UNL1        0.0807
     42 H          -4.7110   -1.6962   -0.0954 H       1  UNL1        0.1654
@<TRIPOS>BOND
     1     1     2    1
     2     2     3    2
     3     3     4    1
     4     4     5    2
     5     5     6    1
     6     6     7   ar
     7     7     8   ar
     8     8     9   ar
     9     9    10   ar
    10    10    11   ar
    11    11    12   ar
    12    12    13   ar
    13    13    14   ar
    14     2    15    1
    15    15    16   ar
    16    16    17   ar
    17    17    18   ar
    18    18    19    1
    19    19    20   ar
    20    20    21   ar
    21    21    22   ar
    22    22    23   ar
    23    23    24   ar
    24    24    25   ar
    25    25    26   ar
    26    18    27   ar
    27    27    28   ar
    28    28    29   ar
    29    29    30   ar
    30    30    31   ar
    31     5     1    1
    32    14     6   ar
    33    31    15   ar
    34    14    10   ar
    35    26    19   ar
    36    31    27   ar
    37    26    22   ar
    38     1    32    1
    39     1    33    1
    40     3    34    1
    41     4    35    1
    42     8    36    1
    43     9    37    1
    44    16    38    1
    45    21    39    1
    46    23    40    1
    47    24    41    1
    48    25    42    1
