@<TRIPOS>MOLECULE
*****
 43 49 0 0 0
SMALL
GASTEIGER

@<TRIPOS>ATOM
      1 C          -2.1488   -0.3092    0.2357 C.3     1  UNL1       -0.0001
      2 C          -3.3550   -1.2292    0.2016 C.2     1  UNL1       -0.0272
      3 C          -2.9026   -2.4962    0.2093 C.2     1  UNL1       -0.0568
      4 C          -1.4613   -2.5172    0.2467 C.2     1  UNL1       -0.0568
      5 C          -0.9702   -1.2655    0.2640 C.2     1  UNL1       -0.0257
      6 C           0.4140   -0.9562    0.3003 C.ar    1  UNL1        0.0591
      7 S           1.0118    0.6794    0.2915 S.2     1  UNL1       -0.0836
      8 C           2.6859    0.2100    0.3480 C.ar    1  UNL1        0.0380
      9 C           3.7627    1.1545    0.3449 C.ar    1  UNL1        0.0358
     10 S           3.7344    2.6340    1.2695 S.2     1  UNL1       -0.0934
     11 C           5.3172    3.1281    0.7565 C.ar    1  UNL1        0.0002
     12 C           5.7934    2.1818   -0.0760 C.ar    1  UNL1        0.0542
     13 N           7.0014    2.1839   -0.7098 N.ar    1  UNL1       -0.3602
     14 C           6.9322    0.9910   -1.4264 C.ar    1  UNL1        0.0028
     15 C           5.7086    0.3227   -1.2062 C.ar    1  UNL1       -0.0355
     16 C           4.9529    1.1136   -0.2986 C.ar    1  UNL1        0.0149
     17 C           2.7178   -1.1426    0.3745 C.ar    1  UNL1        0.0360
     18 C           3.6430   -2.2004    0.4454 C.ar    1  UNL1       -0.0150
     19 C           2.8669   -3.3634    0.4442 C.ar    1  UNL1        0.0932
     20 O           1.5066   -3.1352    0.3838 O.2     1  UNL1       -0.4618
     21 C           1.4930   -1.7706    0.3500 C.ar    1  UNL1        0.1498
     22 C          -4.7388   -0.8594    0.1668 C.ar    1  UNL1        0.0431
     23 S          -6.0213   -2.0343    0.1302 S.2     1  UNL1       -0.0926
     24 C          -7.2572   -0.8532    0.1018 C.ar    1  UNL1        0.0038
     25 C          -6.7353    0.4109    0.1191 C.ar    1  UNL1        0.0968
     26 N          -7.5125    1.5295    0.1024 N.ar    1  UNL1       -0.2514
     27 C          -6.7411    2.6500    0.1257 C.ar    1  UNL1        0.0464
     28 C          -5.3421    2.6640    0.1618 C.ar    1  UNL1        0.0464
     29 N          -4.5462    1.5604    0.1789 N.ar    1  UNL1       -0.2508
     30 C          -5.2915    0.4135    0.1563 C.ar    1  UNL1        0.1036
     31 H          -2.1612    0.3163    1.1352 H       1  UNL1        0.0362
     32 H          -2.1146    0.3213   -0.6596 H       1  UNL1        0.0362
     33 H          -3.4828   -3.4070    0.1914 H       1  UNL1        0.0621
     34 H          -0.9053   -3.4430    0.2572 H       1  UNL1        0.0621
     35 H           5.7736    4.0500    1.0879 H       1  UNL1        0.0714
     36 H           7.7322    2.8832   -0.6598 H       1  UNL1        0.1653
     37 H           7.7679    0.7081   -2.0541 H       1  UNL1        0.0807
     38 H           5.4190   -0.6133   -1.6654 H       1  UNL1        0.0639
     39 H           4.7212   -2.1554    0.4995 H       1  UNL1        0.0655
     40 H           3.1334   -4.4115    0.4868 H       1  UNL1        0.1030
     41 H          -8.2986   -1.1383    0.0741 H       1  UNL1        0.0715
     42 H          -7.2949    3.5847    0.1143 H       1  UNL1        0.0845
     43 H          -4.8080    3.6101    0.1785 H       1  UNL1        0.0845
@<TRIPOS>BOND
     1     1     2    1
     2     2     3    2
     3     3     4    1
     4     4     5    2
     5     5     6    1
     6     6     7   ar
     7     7     8   ar
     8     8     9    1
     9     9    10   ar
    10    10    11   ar
    11    11    12   ar
    12    12    13   ar
    13    13    14   ar
    14    14    15   ar
    15    15    16   ar
    16     8    17   ar
    17    17    18   ar
    18    18    19   ar
    19    19    20   ar
    20    20    21   ar
    21     2    22    1
    22    22    23   ar
    23    23    24   ar
    24    24    25   ar
    25    25    26   ar
    26    26    27   ar
    27    27    28   ar
    28    28    29   ar
    29    29    30   ar
    30     5     1    1
    31    21     6   ar
    32    30    22   ar
    33    16     9   ar
    34    21    17   ar
    35    30    25   ar
    36    16    12   ar
    37     1    31    1
    38     1    32    1
    39     3    33    1
    40     4    34    1
    41    11    35    1
    42    13    36    1
    43    14    37    1
    44    15    38    1
    45    18    39    1
    46    19    40    1
    47    24    41    1
    48    27    42    1
    49    28    43    1
