@<TRIPOS>MOLECULE
*****
 37 42 0 0 0
SMALL
GASTEIGER

@<TRIPOS>ATOM
      1 C           2.7619   -0.2238   -0.3915 C.3     1  UNL1       -0.0001
      2 C           4.0098    0.6349   -0.3212 C.2     1  UNL1       -0.0278
      3 C           3.6229    1.9106   -0.1425 C.2     1  UNL1       -0.0569
      4 C           2.1844    1.9957   -0.0835 C.2     1  UNL1       -0.0568
      5 C           1.6349    0.7758   -0.2238 C.2     1  UNL1       -0.0257
      6 C           0.2371    0.5397   -0.2078 C.ar    1  UNL1        0.0591
      7 S          -1.0201    1.7214   -0.0182 S.2     1  UNL1       -0.0836
      8 C          -2.3122    0.5584   -0.1219 C.ar    1  UNL1        0.0380
      9 C          -3.6944    0.9165   -0.0107 C.ar    1  UNL1        0.0374
     10 S          -4.3777    2.3200   -0.7951 S.2     1  UNL1       -0.0918
     11 C          -5.9802    2.0156   -0.2104 C.ar    1  UNL1        0.0192
     12 C          -5.9326    0.8981    0.5355 C.ar    1  UNL1        0.1424
     13 O          -6.9776    0.3175    1.1844 O.2     1  UNL1       -0.4624
     14 C          -6.3224   -0.7500    1.7700 C.ar    1  UNL1        0.0932
     15 C          -4.9523   -0.8092    1.4839 C.ar    1  UNL1       -0.0150
     16 C          -4.7026    0.2972    0.6488 C.ar    1  UNL1        0.0354
     17 C          -1.7411   -0.6564   -0.2957 C.ar    1  UNL1        0.0360
     18 C          -2.0903   -2.0076   -0.4789 C.ar    1  UNL1       -0.0150
     19 C          -0.8727   -2.6858   -0.6051 C.ar    1  UNL1        0.0932
     20 O           0.2399   -1.8712   -0.5220 O.2     1  UNL1       -0.4618
     21 C          -0.3666   -0.6621   -0.3422 C.ar    1  UNL1        0.1498
     22 C           5.3672    0.2089   -0.4217 C.ar    1  UNL1        0.0351
     23 C           5.8505   -1.0807   -0.6071 C.ar    1  UNL1        0.0422
     24 N           7.2221   -1.2340   -0.6717 N.ar    1  UNL1       -0.2551
     25 C           7.7871   -0.0576   -0.5357 C.ar    1  UNL1        0.0652
     26 S           6.7295    1.2697   -0.3267 S.2     1  UNL1       -0.0758
     27 H           2.7547   -0.9628    0.4172 H       1  UNL1        0.0362
     28 H           2.6955   -0.7313   -1.3602 H       1  UNL1        0.0362
     29 H           4.2513    2.7844   -0.0499 H       1  UNL1        0.0621
     30 H           1.6709    2.9362    0.0556 H       1  UNL1        0.0621
     31 H          -6.8305    2.6436   -0.4320 H       1  UNL1        0.0731
     32 H          -6.9652   -1.3819    2.3693 H       1  UNL1        0.1030
     33 H          -4.2597   -1.5524    1.8516 H       1  UNL1        0.0655
     34 H          -3.0729   -2.4545   -0.5279 H       1  UNL1        0.0655
     35 H          -0.6393   -3.7312   -0.7614 H       1  UNL1        0.1030
     36 H           5.2294   -1.9636   -0.7030 H       1  UNL1        0.0841
     37 H           8.8612    0.0719   -0.5538 H       1  UNL1        0.0907
@<TRIPOS>BOND
     1     1     2    1
     2     2     3    2
     3     3     4    1
     4     4     5    2
     5     5     6    1
     6     6     7   ar
     7     7     8   ar
     8     8     9    1
     9     9    10   ar
    10    10    11   ar
    11    11    12   ar
    12    12    13   ar
    13    13    14   ar
    14    14    15   ar
    15    15    16   ar
    16     8    17   ar
    17    17    18   ar
    18    18    19   ar
    19    19    20   ar
    20    20    21   ar
    21     2    22    1
    22    22    23   ar
    23    23    24   ar
    24    24    25   ar
    25    25    26   ar
    26     5     1    1
    27    21     6   ar
    28    26    22   ar
    29    16     9   ar
    30    21    17   ar
    31    16    12   ar
    32     1    27    1
    33     1    28    1
    34     3    29    1
    35     4    30    1
    36    11    31    1
    37    14    32    1
    38    15    33    1
    39    18    34    1
    40    19    35    1
    41    23    36    1
    42    25    37    1
