@<TRIPOS>MOLECULE
*****
 34 38 0 0 0
SMALL
GASTEIGER

@<TRIPOS>ATOM
      1 C          -1.3337    0.0060   -0.0310 C.3     1  UNL1        0.0012
      2 C          -0.0455   -0.5313   -0.6105 C.2     1  UNL1       -0.0109
      3 C          -0.3539   -1.5031   -1.4865 C.2     1  UNL1       -0.0554
      4 C          -1.7846   -1.6755   -1.5521 C.2     1  UNL1       -0.0568
      5 C          -2.4046   -0.8170   -0.7201 C.2     1  UNL1       -0.0287
      6 C          -3.8222   -0.7411   -0.5577 C.ar    1  UNL1        0.0239
      7 S          -4.9375   -1.7621   -1.4264 S.2     1  UNL1       -0.0952
      8 C          -6.3321   -1.0743   -0.7013 C.ar    1  UNL1       -0.0094
      9 C          -5.9737   -0.0968    0.1767 C.ar    1  UNL1        0.0269
     10 S          -6.9862    0.9648    1.2217 S.2     1  UNL1       -0.0961
     11 C          -5.4561    1.6442    1.7484 C.ar    1  UNL1       -0.0231
     12 C          -4.3038    1.0986    1.1701 C.ar    1  UNL1       -0.0459
     13 C          -4.5884    0.0630    0.2338 C.ar    1  UNL1        0.0037
     14 C           1.2704   -0.0885   -0.2881 C.ar    1  UNL1        0.1052
     15 N           1.5252    0.8723    0.5813 N.ar    1  UNL1       -0.2469
     16 C           2.8858    1.0856    0.6892 C.ar    1  UNL1        0.0462
     17 C           3.6932    0.2892   -0.0977 C.ar    1  UNL1        0.0763
     18 S           2.6926   -0.7669   -1.0064 S.2     1  UNL1       -0.0644
     19 C           5.1482    0.2763   -0.2046 C.ar    1  UNL1        0.1710
     20 N           5.8008    1.1542    0.5624 N.ar    1  UNL1       -0.2154
     21 C           7.1237    1.1083    0.4338 C.ar    1  UNL1        0.1201
     22 N           7.8050    0.2905   -0.3647 N.ar    1  UNL1       -0.2241
     23 C           7.0410   -0.5350   -1.0760 C.ar    1  UNL1        0.1201
     24 N           5.7135   -0.5939   -1.0438 N.ar    1  UNL1       -0.2154
     25 H          -1.4478    1.0705   -0.2633 H       1  UNL1        0.0363
     26 H          -1.3619   -0.1439    1.0537 H       1  UNL1        0.0363
     27 H           0.3235   -2.0993   -2.0805 H       1  UNL1        0.0621
     28 H          -2.2395   -2.4106   -2.2003 H       1  UNL1        0.0621
     29 H          -7.3345   -1.4027   -0.9387 H       1  UNL1        0.0705
     30 H          -5.4961    2.4376    2.4825 H       1  UNL1        0.0694
     31 H          -3.3155    1.4530    1.4325 H       1  UNL1        0.0629
     32 H           3.2445    1.8492    1.3699 H       1  UNL1        0.0842
     33 H           7.7017    1.8018    1.0356 H       1  UNL1        0.1048
     34 H           7.5485   -1.2232   -1.7437 H       1  UNL1        0.1048
@<TRIPOS>BOND
     1     1     2    1
     2     2     3    2
     3     3     4    1
     4     4     5    2
     5     5     6    1
     6     6     7   ar
     7     7     8   ar
     8     8     9   ar
     9     9    10   ar
    10    10    11   ar
    11    11    12   ar
    12    12    13   ar
    13     2    14    1
    14    14    15   ar
    15    15    16   ar
    16    16    17   ar
    17    17    18   ar
    18    17    19    1
    19    19    20   ar
    20    20    21   ar
    21    21    22   ar
    22    22    23   ar
    23    23    24   ar
    24     5     1    1
    25    13     6   ar
    26    18    14   ar
    27    24    19   ar
    28    13     9   ar
    29     1    25    1
    30     1    26    1
    31     3    27    1
    32     4    28    1
    33     8    29    1
    34    11    30    1
    35    12    31    1
    36    16    32    1
    37    21    33    1
    38    23    34    1
