@<TRIPOS>MOLECULE
*****
 41 47 0 0 0
SMALL
GASTEIGER

@<TRIPOS>ATOM
      1 C           2.0243    0.9989    1.0535 C.ar    1  UNL1        0.0083
      2 C           2.8927    0.2693    0.2550 C.ar    1  UNL1        0.1399
      3 O           2.2082   -0.5778   -0.5801 O.2     1  UNL1       -0.4525
      4 C           0.8970   -0.3772   -0.3022 C.ar    1  UNL1        0.1623
      5 C           0.7513    0.5455    0.6559 C.ar    1  UNL1        0.0867
      6 N          -0.5901    0.6907    0.8784 N.ar    1  UNL1       -0.3510
      7 C          -1.2977   -0.1645    0.0362 C.ar    1  UNL1        0.0619
      8 C          -0.3458   -0.8625   -0.7344 C.ar    1  UNL1        0.0613
      9 C          -0.7493   -1.7965   -1.6744 C.ar    1  UNL1        0.0410
     10 N          -2.0608   -2.0429   -1.8567 N.ar    1  UNL1       -0.2541
     11 C          -2.9766   -1.3868   -1.1312 C.ar    1  UNL1        0.0736
     12 C          -4.2840   -1.7217   -1.4050 C.ar    1  UNL1       -0.0351
     13 C          -5.3538   -1.1314   -0.7389 C.ar    1  UNL1       -0.0520
     14 C          -5.1399   -0.1664    0.2433 C.ar    1  UNL1       -0.0171
     15 C          -6.2577    0.3961    0.8834 C.ar    1  UNL1       -0.0540
     16 C          -6.1104    1.3625    1.8705 C.ar    1  UNL1       -0.0612
     17 C          -4.8388    1.7748    2.2259 C.ar    1  UNL1       -0.0611
     18 C          -3.7201    1.2189    1.5926 C.ar    1  UNL1       -0.0533
     19 C          -3.8180    0.2290    0.5785 C.ar    1  UNL1       -0.0067
     20 C          -2.7102   -0.4030   -0.1325 C.ar    1  UNL1        0.0321
     21 C           4.3509    0.2479    0.1536 C.ar    1  UNL1        0.0455
     22 C           5.1651    1.0794    0.9656 C.ar    1  UNL1       -0.0489
     23 C           6.5791    1.1033    0.9133 C.ar    1  UNL1       -0.0589
     24 C           7.3218    0.2963    0.0419 C.ar    1  UNL1       -0.0335
     25 C           6.5785   -0.5620   -0.8017 C.ar    1  UNL1        0.1006
     26 N           7.1119   -1.4051   -1.6989 N.ar    1  UNL1       -0.1908
     27 S           5.8402   -2.1792   -2.4269 S.2     1  UNL1        0.1165
     28 N           4.5635   -1.4831   -1.6406 N.ar    1  UNL1       -0.1901
     29 C           5.0600   -0.5981   -0.7563 C.ar    1  UNL1        0.1105
     30 H           2.2738    1.7371    1.8001 H       1  UNL1        0.0676
     31 H          -0.9481    1.3373    1.5637 H       1  UNL1        0.1660
     32 H          -0.0545   -2.3571   -2.2894 H       1  UNL1        0.0837
     33 H          -4.4866   -2.4722   -2.1668 H       1  UNL1        0.0639
     34 H          -6.3619   -1.4432   -1.0052 H       1  UNL1        0.0624
     35 H          -7.2643    0.0809    0.6135 H       1  UNL1        0.0624
     36 H          -6.9842    1.7878    2.3560 H       1  UNL1        0.0618
     37 H          -4.7079    2.5301    2.9967 H       1  UNL1        0.0618
     38 H          -2.7662    1.5936    1.9266 H       1  UNL1        0.0624
     39 H           4.6897    1.7500    1.6820 H       1  UNL1        0.0625
     40 H           7.1144    1.7796    1.5806 H       1  UNL1        0.0618
     41 H           8.4044    0.3219    0.0093 H       1  UNL1        0.0640
@<TRIPOS>BOND
     1     1     2   ar
     2     2     3   ar
     3     3     4   ar
     4     4     5   ar
     5     5     6   ar
     6     6     7   ar
     7     7     8   ar
     8     8     9   ar
     9     9    10   ar
    10    10    11   ar
    11    11    12   ar
    12    12    13   ar
    13    13    14   ar
    14    14    15   ar
    15    15    16   ar
    16    16    17   ar
    17    17    18   ar
    18    18    19   ar
    19    19    20   ar
    20     2    21    1
    21    21    22   ar
    22    22    23   ar
    23    23    24   ar
    24    24    25   ar
    25    25    26   ar
    26    26    27   ar
    27    27    28   ar
    28    28    29   ar
    29     5     1   ar
    30    20     7   ar
    31    29    21   ar
    32     8     4   ar
    33    20    11   ar
    34    29    25   ar
    35    19    14   ar
    36     1    30    1
    37     6    31    1
    38     9    32    1
    39    12    33    1
    40    13    34    1
    41    15    35    1
    42    16    36    1
    43    17    37    1
    44    18    38    1
    45    22    39    1
    46    23    40    1
    47    24    41    1
