@<TRIPOS>MOLECULE
*****
 32 36 0 0 0
SMALL
GASTEIGER

@<TRIPOS>ATOM
      1 SI          1.9182    1.5372   -0.8624 Si      1  UNL1        0.0000
      2 C           1.0873   -0.0848   -0.1140 C.2     1  UNL1        0.0000
      3 C           2.0070   -0.9245    0.4216 C.2     1  UNL1        0.0000
      4 C           3.3003   -0.3703    0.3041 C.ar    1  UNL1        0.0000
      5 N           4.4834   -0.8905    0.7242 N.ar    1  UNL1        0.0000
      6 C           5.4822    0.0098    0.3873 C.ar    1  UNL1        0.0000
      7 C           4.9168    1.1048   -0.2522 C.ar    1  UNL1        0.0000
      8 C           3.5555    0.8406   -0.2906 C.ar    1  UNL1        0.0000
      9 C          -0.3386   -0.3013   -0.2449 C.ar    1  UNL1        0.0000
     10 C          -0.9033   -1.2595   -1.1182 C.ar    1  UNL1        0.0000
     11 C          -2.3156   -1.4397   -1.2213 C.ar    1  UNL1        0.0000
     12 S          -3.1960   -2.5369   -2.2272 S.2     1  UNL1        0.0000
     13 C          -4.7155   -1.9924   -1.6309 C.ar    1  UNL1        0.0000
     14 C          -4.5923   -0.9978   -0.6837 C.ar    1  UNL1        0.0000
     15 C          -3.2336   -0.7119   -0.4796 C.ar    1  UNL1        0.0000
     16 C          -2.6975    0.2529    0.4259 C.ar    1  UNL1        0.0000
     17 C          -3.3365    1.0927    1.2880 C.ar    1  UNL1        0.0000
     18 N          -2.3224    1.7789    1.9244 N.ar    1  UNL1        0.0000
     19 C          -1.0885    1.3589    1.4540 C.ar    1  UNL1        0.0000
     20 C          -1.3015    0.3972    0.4889 C.ar    1  UNL1        0.0000
     21 H           1.7537    1.5832   -2.3394 H       1  UNL1        0.0000
     22 H           1.4879    2.7529   -0.1205 H       1  UNL1        0.0000
     23 H           1.7875   -1.8850    0.8688 H       1  UNL1        0.0000
     24 H           4.6195   -1.7738    1.1979 H       1  UNL1        0.0000
     25 H           6.5118   -0.2120    0.6338 H       1  UNL1        0.0000
     26 H           5.4532    1.9655   -0.6295 H       1  UNL1        0.0000
     27 H          -0.2486   -1.8713   -1.7361 H       1  UNL1        0.0000
     28 H          -5.6261   -2.4357   -2.0095 H       1  UNL1        0.0000
     29 H          -5.4321   -0.5277   -0.1897 H       1  UNL1        0.0000
     30 H          -4.3755    1.2725    1.5247 H       1  UNL1        0.0000
     31 H          -2.4568    2.4808    2.6408 H       1  UNL1        0.0000
     32 H          -0.1842    1.7872    1.8652 H       1  UNL1        0.0000
@<TRIPOS>BOND
     1     1     2    1
     2     2     3    2
     3     3     4    1
     4     4     5   ar
     5     5     6   ar
     6     6     7   ar
     7     7     8   ar
     8     2     9    1
     9     9    10   ar
    10    10    11   ar
    11    11    12   ar
    12    12    13   ar
    13    13    14   ar
    14    14    15   ar
    15    15    16   ar
    16    16    17   ar
    17    17    18   ar
    18    18    19   ar
    19    19    20   ar
    20     8     1    1
    21    20     9   ar
    22     8     4   ar
    23    15    11   ar
    24    20    16   ar
    25     1    21    1
    26     1    22    1
    27     3    23    1
    28     5    24    1
    29     6    25    1
    30     7    26    1
    31    10    27    1
    32    13    28    1
    33    14    29    1
    34    17    30    1
    35    18    31    1
    36    19    32    1
