@<TRIPOS>MOLECULE
*****
 31 35 0 0 0
SMALL
GASTEIGER

@<TRIPOS>ATOM
      1 SI          0.6803    3.5605    0.0600 Si      1  UNL1        0.0000
      2 C           1.7528    2.0291    0.0068 C.2     1  UNL1        0.0000
      3 C           1.0062    0.9038   -0.0275 C.ar    1  UNL1        0.0000
      4 C           1.5442   -0.4857   -0.0676 C.ar    1  UNL1        0.0000
      5 C           0.6733   -1.5315   -0.0863 C.ar    1  UNL1        0.0000
      6 C          -0.7156   -1.2324   -0.0604 C.ar    1  UNL1        0.0000
      7 N          -1.6874   -2.1960   -0.0718 N.ar    1  UNL1        0.0000
      8 C          -2.9005   -1.5473   -0.0424 C.ar    1  UNL1        0.0000
      9 C          -4.2954   -1.7931   -0.0319 C.ar    1  UNL1        0.0000
     10 C          -4.8732   -0.5377    0.0047 C.ar    1  UNL1        0.0000
     11 N          -3.8976    0.4315    0.0163 N.ar    1  UNL1        0.0000
     12 C          -2.6858   -0.1995   -0.0131 C.ar    1  UNL1        0.0000
     13 C          -1.2977    0.0201   -0.0244 C.ar    1  UNL1        0.0000
     14 C          -0.4690    1.1676   -0.0055 C.ar    1  UNL1        0.0000
     15 C          -0.8289    2.4627    0.0362 C.2     1  UNL1        0.0000
     16 C           2.9379   -0.8025   -0.1284 C.ar    1  UNL1        0.0000
     17 C           3.8544   -0.5657   -1.1407 C.ar    1  UNL1        0.0000
     18 N           5.1544   -0.9701   -0.9017 N.ar    1  UNL1        0.0000
     19 C           5.2209   -1.5058    0.2959 C.ar    1  UNL1        0.0000
     20 S           3.7601   -1.5567    1.1892 S.2     1  UNL1        0.0000
     21 H           0.8008    4.3776   -1.1712 H       1  UNL1        0.0000
     22 H           0.8161    4.3048    1.3348 H       1  UNL1        0.0000
     23 H           2.8283    2.1077    0.0128 H       1  UNL1        0.0000
     24 H           1.0080   -2.5632   -0.1321 H       1  UNL1        0.0000
     25 H          -1.5862   -3.2023   -0.0964 H       1  UNL1        0.0000
     26 H          -4.8105   -2.7433   -0.0483 H       1  UNL1        0.0000
     27 H          -5.9159   -0.2485    0.0239 H       1  UNL1        0.0000
     28 H          -4.0101    1.4367    0.0418 H       1  UNL1        0.0000
     29 H          -1.8263    2.8673    0.0608 H       1  UNL1        0.0000
     30 H           3.6173   -0.0935   -2.0870 H       1  UNL1        0.0000
     31 H           6.1450   -1.8944    0.7032 H       1  UNL1        0.0000
@<TRIPOS>BOND
     1     1     2    1
     2     2     3    2
     3     3     4   ar
     4     4     5   ar
     5     5     6   ar
     6     6     7   ar
     7     7     8   ar
     8     8     9   ar
     9     9    10   ar
    10    10    11   ar
    11    11    12   ar
    12    12    13   ar
    13    13    14   ar
    14    14    15    2
    15     4    16    1
    16    16    17   ar
    17    17    18   ar
    18    18    19   ar
    19    19    20   ar
    20    15     1    1
    21    20    16   ar
    22    14     3   ar
    23    13     6   ar
    24    12     8   ar
    25     1    21    1
    26     1    22    1
    27     2    23    1
    28     5    24    1
    29     7    25    1
    30     9    26    1
    31    10    27    1
    32    11    28    1
    33    15    29    1
    34    17    30    1
    35    19    31    1
