@<TRIPOS>MOLECULE
*****
 42 47 0 0 0
SMALL
GASTEIGER

@<TRIPOS>ATOM
      1 C          -1.7540    0.4723    1.6122 C.ar    1  UNL1       -0.0075
      2 C          -2.4966    0.1914    0.4832 C.ar    1  UNL1        0.1363
      3 O          -1.6506    0.0111   -0.5722 O.2     1  UNL1       -0.4542
      4 C          -0.3707    0.1666   -0.1201 C.ar    1  UNL1        0.1440
      5 C          -0.3783    0.4633    1.2308 C.ar    1  UNL1        0.0291
      6 C           0.8622    0.7128    1.8623 C.ar    1  UNL1       -0.0065
      7 C           0.8409    1.0912    3.2241 C.ar    1  UNL1       -0.0533
      8 C           2.0137    1.4456    3.8768 C.ar    1  UNL1       -0.0611
      9 C           3.2030    1.4574    3.1686 C.ar    1  UNL1       -0.0611
     10 C           3.2263    1.0702    1.8210 C.ar    1  UNL1       -0.0534
     11 C           2.0790    0.6214    1.1175 C.ar    1  UNL1       -0.0088
     12 C           2.0683    0.1594   -0.2713 C.ar    1  UNL1        0.0025
     13 C           0.7972    0.0307   -0.8898 C.ar    1  UNL1        0.0262
     14 C           0.6300   -0.2416   -2.2576 C.ar    1  UNL1       -0.0499
     15 C           1.7381   -0.4260   -3.0676 C.ar    1  UNL1       -0.0532
     16 C           3.0180   -0.4305   -2.5163 C.ar    1  UNL1       -0.0144
     17 C           4.1070   -0.7083   -3.3523 C.ar    1  UNL1       -0.0359
     18 C           5.3678   -0.8084   -2.8016 C.ar    1  UNL1        0.0281
     19 N           5.6042   -0.6829   -1.4886 N.ar    1  UNL1       -0.2626
     20 C           4.5298   -0.4053   -0.7032 C.ar    1  UNL1        0.0359
     21 C           3.2026   -0.1941   -1.1268 C.ar    1  UNL1        0.0086
     22 C          -3.9247    0.0603    0.2018 C.ar    1  UNL1        0.0173
     23 C          -4.3885   -0.2445   -1.0875 C.ar    1  UNL1       -0.0511
     24 C          -5.7559   -0.3689   -1.3508 C.ar    1  UNL1       -0.0611
     25 C          -6.6819   -0.1901   -0.3268 C.ar    1  UNL1       -0.0617
     26 C          -6.2416    0.1126    0.9589 C.ar    1  UNL1       -0.0611
     27 C          -4.8734    0.2367    1.2208 C.ar    1  UNL1       -0.0511
     28 H          -2.1527    0.6733    2.5954 H       1  UNL1        0.0662
     29 H          -0.0912    1.1323    3.7819 H       1  UNL1        0.0624
     30 H           1.9926    1.7458    4.9207 H       1  UNL1        0.0618
     31 H           4.1206    1.7854    3.6515 H       1  UNL1        0.0618
     32 H           4.1775    1.1999    1.3160 H       1  UNL1        0.0624
     33 H          -0.3628   -0.3020   -2.6994 H       1  UNL1        0.0625
     34 H           1.5833   -0.6179   -4.1274 H       1  UNL1        0.0624
     35 H           3.9800   -0.8654   -4.4188 H       1  UNL1        0.0639
     36 H           6.2364   -1.0227   -3.4166 H       1  UNL1        0.0830
     37 H           4.7930   -0.4246    0.3478 H       1  UNL1        0.0836
     38 H          -3.6853   -0.3894   -1.9050 H       1  UNL1        0.0625
     39 H          -6.0941   -0.6056   -2.3562 H       1  UNL1        0.0618
     40 H          -7.7450   -0.2868   -0.5308 H       1  UNL1        0.0618
     41 H          -6.9623    0.2526    1.7606 H       1  UNL1        0.0618
     42 H          -4.5623    0.4735    2.2348 H       1  UNL1        0.0625
@<TRIPOS>BOND
     1     1     2   ar
     2     2     3   ar
     3     3     4   ar
     4     4     5   ar
     5     5     6   ar
     6     6     7   ar
     7     7     8   ar
     8     8     9   ar
     9     9    10   ar
    10    10    11   ar
    11    11    12   ar
    12    12    13   ar
    13    13    14   ar
    14    14    15   ar
    15    15    16   ar
    16    16    17   ar
    17    17    18   ar
    18    18    19   ar
    19    19    20   ar
    20    20    21   ar
    21     2    22    1
    22    22    23   ar
    23    23    24   ar
    24    24    25   ar
    25    25    26   ar
    26    26    27   ar
    27     5     1   ar
    28    11     6   ar
    29    21    12   ar
    30    27    22   ar
    31    13     4   ar
    32    21    16   ar
    33     1    28    1
    34     7    29    1
    35     8    30    1
    36     9    31    1
    37    10    32    1
    38    14    33    1
    39    15    34    1
    40    17    35    1
    41    18    36    1
    42    20    37    1
    43    23    38    1
    44    24    39    1
    45    25    40    1
    46    26    41    1
    47    27    42    1
