@<TRIPOS>MOLECULE
*****
 38 43 0 0 0
SMALL
GASTEIGER

@<TRIPOS>ATOM
      1 C           1.9865    1.0769   -0.3667 C.ar    1  UNL1       -0.0058
      2 C           2.4796   -0.1441    0.0667 C.ar    1  UNL1        0.1545
      3 O           1.4305   -0.9764    0.3578 O.2     1  UNL1       -0.4495
      4 C           0.2967   -0.2830    0.1091 C.ar    1  UNL1        0.1790
      5 C           0.5650    0.9946   -0.3420 C.ar    1  UNL1        0.0322
      6 C          -0.5444    1.8359   -0.6430 C.ar    1  UNL1       -0.0062
      7 C          -0.3029    3.1436   -1.1047 C.ar    1  UNL1       -0.0533
      8 C          -1.3674    3.9945   -1.4090 C.ar    1  UNL1       -0.0611
      9 C          -2.6836    3.5602   -1.2594 C.ar    1  UNL1       -0.0611
     10 C          -2.9558    2.2685   -0.8034 C.ar    1  UNL1       -0.0533
     11 C          -1.9074    1.3842   -0.4874 C.ar    1  UNL1       -0.0043
     12 C          -2.2172    0.0705   -0.0237 C.ar    1  UNL1        0.0576
     13 C          -3.3764   -0.7105    0.2490 C.ar    1  UNL1        0.1173
     14 N          -4.7000   -0.4123    0.1394 N.ar    1  UNL1       -0.2511
     15 C          -5.5304   -1.4209    0.4936 C.ar    1  UNL1        0.0285
     16 C          -5.1399   -2.6804    0.9403 C.ar    1  UNL1       -0.0401
     17 C          -3.7834   -2.9797    1.0503 C.ar    1  UNL1       -0.0158
     18 C          -2.9238   -1.9512    0.6892 C.ar    1  UNL1        0.1546
     19 O          -1.5655   -1.9881    0.7064 O.2     1  UNL1       -0.4495
     20 C          -1.1551   -0.7689    0.2765 C.ar    1  UNL1        0.1810
     21 C           3.8215   -0.6888    0.2635 C.ar    1  UNL1        0.1060
     22 C           4.9633    0.0643    0.0007 C.ar    1  UNL1       -0.0327
     23 C           6.2147   -0.5133    0.2089 C.ar    1  UNL1       -0.0582
     24 C           6.2926   -1.8206    0.6715 C.ar    1  UNL1       -0.0436
     25 C           5.1104   -2.4996    0.9080 C.ar    1  UNL1        0.0284
     26 N           3.8860   -1.9647    0.7150 N.ar    1  UNL1       -0.2519
     27 H           2.5802    1.9278   -0.6658 H       1  UNL1        0.0662
     28 H           0.7105    3.5149   -1.2329 H       1  UNL1        0.0624
     29 H          -1.1694    5.0028   -1.7650 H       1  UNL1        0.0618
     30 H          -3.5062    4.2300   -1.4988 H       1  UNL1        0.0618
     31 H          -3.9951    1.9626   -0.6984 H       1  UNL1        0.0624
     32 H          -6.5885   -1.1814    0.4057 H       1  UNL1        0.0830
     33 H          -5.8883   -3.4224    1.2004 H       1  UNL1        0.0634
     34 H          -3.4170   -3.9392    1.3908 H       1  UNL1        0.0655
     35 H           4.8966    1.0841   -0.3603 H       1  UNL1        0.0640
     36 H           7.1201    0.0534    0.0112 H       1  UNL1        0.0619
     37 H           7.2498   -2.2998    0.8439 H       1  UNL1        0.0633
     38 H           5.1136   -3.5237    1.2701 H       1  UNL1        0.0830
@<TRIPOS>BOND
     1     1     2   ar
     2     2     3   ar
     3     3     4   ar
     4     4     5   ar
     5     5     6   ar
     6     6     7   ar
     7     7     8   ar
     8     8     9   ar
     9     9    10   ar
    10    10    11   ar
    11    11    12   ar
    12    12    13   ar
    13    13    14   ar
    14    14    15   ar
    15    15    16   ar
    16    16    17   ar
    17    17    18   ar
    18    18    19   ar
    19    19    20   ar
    20     2    21    1
    21    21    22   ar
    22    22    23   ar
    23    23    24   ar
    24    24    25   ar
    25    25    26   ar
    26     5     1   ar
    27    11     6   ar
    28    20    12   ar
    29    26    21   ar
    30    20     4   ar
    31    18    13   ar
    32     1    27    1
    33     7    28    1
    34     8    29    1
    35     9    30    1
    36    10    31    1
    37    15    32    1
    38    16    33    1
    39    17    34    1
    40    22    35    1
    41    23    36    1
    42    24    37    1
    43    25    38    1
