@<TRIPOS>MOLECULE
*****
 40 45 0 0 0
SMALL
GASTEIGER

@<TRIPOS>ATOM
      1 C           2.7868   -0.6345    1.6673 C.ar    1  UNL1       -0.0080
      2 C           3.2873   -0.2706    0.4267 C.ar    1  UNL1        0.1364
      3 O           2.2476    0.0365   -0.4123 O.2     1  UNL1       -0.4511
      4 C           1.1087   -0.1340    0.2978 C.ar    1  UNL1        0.1783
      5 C           1.3741   -0.5471    1.5877 C.ar    1  UNL1        0.0245
      6 C           0.2760   -0.7650    2.4444 C.ar    1  UNL1       -0.0502
      7 C          -1.0725   -0.5703    2.0106 C.ar    1  UNL1       -0.0496
      8 C          -1.4044   -0.1474    0.6987 C.ar    1  UNL1        0.0322
      9 C          -0.3468    0.0755   -0.1680 C.ar    1  UNL1        0.1788
     10 O          -0.7695    0.4735   -1.3868 O.2     1  UNL1       -0.4511
     11 C          -2.1276    0.5144   -1.3251 C.ar    1  UNL1        0.1370
     12 C          -2.9433    0.8822   -2.3906 C.ar    1  UNL1       -0.0181
     13 C          -4.3204    0.8726   -2.1638 C.ar    1  UNL1       -0.0505
     14 C          -4.8587    0.5098   -0.9212 C.ar    1  UNL1       -0.0171
     15 C          -6.2477    0.5093   -0.7219 C.ar    1  UNL1       -0.0540
     16 C          -6.7960    0.1502    0.5103 C.ar    1  UNL1       -0.0612
     17 C          -5.9642   -0.2145    1.5638 C.ar    1  UNL1       -0.0611
     18 C          -4.5789   -0.2223    1.3916 C.ar    1  UNL1       -0.0533
     19 C          -4.0034    0.1373    0.1541 C.ar    1  UNL1       -0.0065
     20 C          -2.5888    0.1414   -0.0606 C.ar    1  UNL1        0.0357
     21 C           4.6307   -0.1542   -0.1388 C.ar    1  UNL1        0.0173
     22 C           4.8285    0.2507   -1.4681 C.ar    1  UNL1       -0.0511
     23 C           6.1150    0.3605   -2.0040 C.ar    1  UNL1       -0.0611
     24 C           7.2253    0.0665   -1.2174 C.ar    1  UNL1       -0.0617
     25 C           7.0497   -0.3369    0.1037 C.ar    1  UNL1       -0.0611
     26 C           5.7620   -0.4462    0.6386 C.ar    1  UNL1       -0.0511
     27 H           3.3702   -0.9280    2.5275 H       1  UNL1        0.0661
     28 H           0.4523   -1.0913    3.4679 H       1  UNL1        0.0625
     29 H          -1.8609   -0.7605    2.7343 H       1  UNL1        0.0625
     30 H          -2.5221    1.1617   -3.3491 H       1  UNL1        0.0655
     31 H          -4.9789    1.1567   -2.9832 H       1  UNL1        0.0625
     32 H          -6.9203    0.7905   -1.5298 H       1  UNL1        0.0624
     33 H          -7.8746    0.1558    0.6458 H       1  UNL1        0.0618
     34 H          -6.3933   -0.4939    2.5228 H       1  UNL1        0.0618
     35 H          -3.9627   -0.5118    2.2343 H       1  UNL1        0.0624
     36 H           3.9768    0.4863   -2.1036 H       1  UNL1        0.0625
     37 H           6.2454    0.6758   -3.0360 H       1  UNL1        0.0618
     38 H           8.2255    0.1517   -1.6337 H       1  UNL1        0.0618
     39 H           7.9146   -0.5671    0.7205 H       1  UNL1        0.0618
     40 H           5.6586   -0.7635    1.6728 H       1  UNL1        0.0625
@<TRIPOS>BOND
     1     1     2   ar
     2     2     3   ar
     3     3     4   ar
     4     4     5   ar
     5     5     6   ar
     6     6     7   ar
     7     7     8   ar
     8     8     9   ar
     9     9    10   ar
    10    10    11   ar
    11    11    12   ar
    12    12    13   ar
    13    13    14   ar
    14    14    15   ar
    15    15    16   ar
    16    16    17   ar
    17    17    18   ar
    18    18    19   ar
    19    19    20   ar
    20     2    21    1
    21    21    22   ar
    22    22    23   ar
    23    23    24   ar
    24    24    25   ar
    25    25    26   ar
    26     5     1   ar
    27    20     8   ar
    28    26    21   ar
    29     9     4   ar
    30    20    11   ar
    31    19    14   ar
    32     1    27    1
    33     6    28    1
    34     7    29    1
    35    12    30    1
    36    13    31    1
    37    15    32    1
    38    16    33    1
    39    17    34    1
    40    18    35    1
    41    22    36    1
    42    23    37    1
    43    24    38    1
    44    25    39    1
    45    26    40    1
