@<TRIPOS>MOLECULE
*****
 37 43 0 0 0
SMALL
GASTEIGER

@<TRIPOS>ATOM
      1 C           1.7978    2.0567    0.5126 C.ar    1  UNL1       -0.0065
      2 C           2.3480    0.8095    0.2865 C.ar    1  UNL1        0.1566
      3 O           1.3494   -0.0868    0.0443 O.2     1  UNL1       -0.4525
      4 C           0.1589    0.5768    0.1130 C.ar    1  UNL1        0.1456
      5 C           0.3907    1.9159    0.4029 C.ar    1  UNL1        0.0215
      6 C          -0.7069    2.7794    0.5183 C.ar    1  UNL1       -0.0503
      7 C          -2.0007    2.2607    0.3371 C.ar    1  UNL1       -0.0511
      8 C          -2.2554    0.9044    0.0423 C.ar    1  UNL1        0.0138
      9 C          -3.5942    0.4436   -0.1295 C.ar    1  UNL1        0.0809
     10 N          -4.6285    1.3063   -0.0106 N.ar    1  UNL1       -0.2543
     11 C          -5.8997    0.8661   -0.1744 C.ar    1  UNL1        0.0283
     12 C          -6.2358   -0.4398   -0.4634 C.ar    1  UNL1       -0.0429
     13 C          -5.2035   -1.3524   -0.5926 C.ar    1  UNL1       -0.0490
     14 C          -3.8727   -0.9175   -0.4266 C.ar    1  UNL1        0.0292
     15 C          -2.7672   -1.8190   -0.5494 C.ar    1  UNL1        0.1097
     16 N          -2.8376   -3.1352   -0.8253 N.ar    1  UNL1       -0.1901
     17 S          -1.2806   -3.7003   -0.8528 S.2     1  UNL1        0.1165
     18 N          -0.4534   -2.3109   -0.5184 N.ar    1  UNL1       -0.1900
     19 C          -1.3582   -1.3292   -0.3675 C.ar    1  UNL1        0.1118
     20 C          -1.1204    0.0374   -0.0717 C.ar    1  UNL1        0.0552
     21 C           3.7135    0.3296    0.2657 C.ar    1  UNL1        0.1340
     22 N           4.6978    1.2591    0.5140 N.ar    1  UNL1       -0.2496
     23 C           6.0206    0.9089    0.5174 C.ar    1  UNL1        0.0305
     24 C           6.5567   -0.3524    0.2877 C.ar    1  UNL1       -0.0153
     25 C           5.5854   -1.3378    0.0287 C.ar    1  UNL1        0.1035
     26 N           5.8488   -2.6301   -0.2231 N.ar    1  UNL1       -0.1907
     27 S           4.3825   -3.3700   -0.4598 S.2     1  UNL1        0.1165
     28 N           3.3568   -2.0895   -0.2542 N.ar    1  UNL1       -0.1885
     29 C           4.1111   -1.0080    0.0123 C.ar    1  UNL1        0.1287
     30 H           2.3561    2.9566    0.7304 H       1  UNL1        0.0662
     31 H          -0.5683    3.8331    0.7438 H       1  UNL1        0.0625
     32 H          -2.8373    2.9557    0.4326 H       1  UNL1        0.0624
     33 H          -6.6666    1.6278   -0.0610 H       1  UNL1        0.0830
     34 H          -7.2708   -0.7377   -0.5842 H       1  UNL1        0.0633
     35 H          -5.4238   -2.3929   -0.8202 H       1  UNL1        0.0625
     36 H           6.6908    1.7425    0.7279 H       1  UNL1        0.0830
     37 H           7.6167   -0.5604    0.3055 H       1  UNL1        0.0655
@<TRIPOS>BOND
     1     1     2   ar
     2     2     3   ar
     3     3     4   ar
     4     4     5   ar
     5     5     6   ar
     6     6     7   ar
     7     7     8   ar
     8     8     9   ar
     9     9    10   ar
    10    10    11   ar
    11    11    12   ar
    12    12    13   ar
    13    13    14   ar
    14    14    15   ar
    15    15    16   ar
    16    16    17   ar
    17    17    18   ar
    18    18    19   ar
    19    19    20   ar
    20     2    21    1
    21    21    22   ar
    22    22    23   ar
    23    23    24   ar
    24    24    25   ar
    25    25    26   ar
    26    26    27   ar
    27    27    28   ar
    28    28    29   ar
    29     5     1   ar
    30    20     8   ar
    31    29    21   ar
    32    20     4   ar
    33    29    25   ar
    34    14     9   ar
    35    19    15   ar
    36     1    30    1
    37     6    31    1
    38     7    32    1
    39    11    33    1
    40    12    34    1
    41    13    35    1
    42    23    36    1
    43    24    37    1
