@<TRIPOS>MOLECULE
*****
 33 38 0 0 0
SMALL
GASTEIGER

@<TRIPOS>ATOM
      1 C          -1.3655   -0.7014    1.1456 C.ar    1  UNL1        0.0289
      2 C          -1.9740   -0.0201    0.1000 C.ar    1  UNL1        0.1596
      3 O          -1.0405    0.5164   -0.7725 O.2     1  UNL1       -0.4493
      4 C           0.1667    0.1639   -0.2625 C.ar    1  UNL1        0.1813
      5 C          -0.0086   -0.5466    0.8561 C.ar    1  UNL1        0.1748
      6 O           1.1957   -0.9045    1.3747 O.2     1  UNL1       -0.4508
      7 C           2.1207   -0.3690    0.5041 C.ar    1  UNL1        0.1485
      8 C           1.5257    0.3202   -0.5544 C.ar    1  UNL1        0.0638
      9 C           2.3199    0.9288   -1.5349 C.ar    1  UNL1       -0.0468
     10 C           3.7162    0.8262   -1.4228 C.ar    1  UNL1       -0.0530
     11 C           4.3220    0.1331   -0.3585 C.ar    1  UNL1       -0.0114
     12 C           5.7106    0.0199   -0.2297 C.ar    1  UNL1       -0.0358
     13 C           6.2288   -0.6822    0.8517 C.ar    1  UNL1        0.0282
     14 N           5.4774   -1.2752    1.8064 N.ar    1  UNL1       -0.2625
     15 C           4.1357   -1.1634    1.6780 C.ar    1  UNL1        0.0388
     16 C           3.5204   -0.4791    0.6278 C.ar    1  UNL1        0.0432
     17 C          -3.3602    0.2389   -0.2573 C.ar    1  UNL1        0.1341
     18 N          -3.6229    0.9686   -1.3908 N.ar    1  UNL1       -0.2496
     19 C          -4.9048    1.2458   -1.7802 C.ar    1  UNL1        0.0305
     20 C          -6.0780    0.8634   -1.1407 C.ar    1  UNL1       -0.0153
     21 C          -5.8593    0.1117    0.0287 C.ar    1  UNL1        0.1035
     22 N          -6.8230   -0.3758    0.8257 N.ar    1  UNL1       -0.1907
     23 S          -6.0570   -1.1795    2.0575 S.2     1  UNL1        0.1165
     24 N          -4.4697   -0.9465    1.6375 N.ar    1  UNL1       -0.1885
     25 C          -4.4655   -0.2216    0.5022 C.ar    1  UNL1        0.1287
     26 H          -1.8282   -1.2186    1.9716 H       1  UNL1        0.0693
     27 H           1.8673    1.4675   -2.3627 H       1  UNL1        0.0626
     28 H           4.3326    1.2997   -2.1857 H       1  UNL1        0.0624
     29 H           6.3851    0.4666   -0.9525 H       1  UNL1        0.0639
     30 H           7.3026   -0.7888    0.9813 H       1  UNL1        0.0830
     31 H           3.5551   -1.6486    2.4577 H       1  UNL1        0.0837
     32 H          -4.9622    1.8326   -2.6972 H       1  UNL1        0.0830
     33 H          -7.0632    1.1175   -1.5043 H       1  UNL1        0.0655
@<TRIPOS>BOND
     1     1     2   ar
     2     2     3   ar
     3     3     4   ar
     4     4     5   ar
     5     5     6   ar
     6     6     7   ar
     7     7     8   ar
     8     8     9   ar
     9     9    10   ar
    10    10    11   ar
    11    11    12   ar
    12    12    13   ar
    13    13    14   ar
    14    14    15   ar
    15    15    16   ar
    16     2    17    1
    17    17    18   ar
    18    18    19   ar
    19    19    20   ar
    20    20    21   ar
    21    21    22   ar
    22    22    23   ar
    23    23    24   ar
    24    24    25   ar
    25     5     1   ar
    26    16     7   ar
    27    25    17   ar
    28     8     4   ar
    29    16    11   ar
    30    25    21   ar
    31     1    26    1
    32     9    27    1
    33    10    28    1
    34    12    29    1
    35    13    30    1
    36    15    31    1
    37    19    32    1
    38    20    33    1
