@<TRIPOS>MOLECULE
*****
 32 36 0 0 0
SMALL
GASTEIGER

@<TRIPOS>ATOM
      1 C          -1.6530    0.8920   -1.7966 C.ar    1  UNL1        0.0001
      2 C          -2.2427    0.4542   -0.6294 C.ar    1  UNL1        0.1549
      3 O          -1.3152   -0.0343    0.2528 O.2     1  UNL1       -0.4521
      4 C          -0.1111    0.1000   -0.3761 C.ar    1  UNL1        0.1505
      5 C          -0.2736    0.6482   -1.5989 C.ar    1  UNL1        0.0591
      6 S           1.2421    0.8217   -2.4011 S.2     1  UNL1       -0.0843
      7 C           2.0869    0.1305   -1.0287 C.ar    1  UNL1        0.0327
      8 C           1.2109   -0.2190    0.0104 C.ar    1  UNL1        0.0328
      9 C           1.7217   -0.7906    1.1950 C.ar    1  UNL1       -0.0494
     10 C           3.0953   -1.0080    1.3332 C.ar    1  UNL1       -0.0532
     11 C           3.9823   -0.6666    0.3099 C.ar    1  UNL1       -0.0139
     12 C           5.3592   -0.8803    0.4387 C.ar    1  UNL1       -0.0358
     13 C           6.1943   -0.5224   -0.6088 C.ar    1  UNL1        0.0281
     14 N           5.7639    0.0267   -1.7628 N.ar    1  UNL1       -0.2626
     15 C           4.4300    0.2295   -1.8779 C.ar    1  UNL1        0.0363
     16 C           3.4940   -0.0933   -0.8846 C.ar    1  UNL1        0.0146
     17 C          -3.6346    0.4223   -0.1872 C.ar    1  UNL1        0.1060
     18 C          -4.0204   -0.0715    1.0554 C.ar    1  UNL1       -0.0327
     19 C          -5.3724   -0.0617    1.3907 C.ar    1  UNL1       -0.0582
     20 C          -6.2955    0.4383    0.4806 C.ar    1  UNL1       -0.0436
     21 C          -5.8267    0.9104   -0.7337 C.ar    1  UNL1        0.0284
     22 N          -4.5228    0.9141   -1.0876 N.ar    1  UNL1       -0.2519
     23 H          -2.1534    1.3201   -2.6528 H       1  UNL1        0.0667
     24 H           1.0444   -1.0622    2.0016 H       1  UNL1        0.0625
     25 H           3.4619   -1.4504    2.2578 H       1  UNL1        0.0624
     26 H           5.7843   -1.3177    1.3361 H       1  UNL1        0.0639
     27 H           7.2681   -0.6743   -0.5425 H       1  UNL1        0.0830
     28 H           4.1329    0.6732   -2.8239 H       1  UNL1        0.0836
     29 H          -3.2875   -0.4587    1.7554 H       1  UNL1        0.0640
     30 H          -5.6999   -0.4414    2.3543 H       1  UNL1        0.0619
     31 H          -7.3547    0.4600    0.7113 H       1  UNL1        0.0633
     32 H          -6.5087    1.3111   -1.4784 H       1  UNL1        0.0830
@<TRIPOS>BOND
     1     1     2   ar
     2     2     3   ar
     3     3     4   ar
     4     4     5   ar
     5     5     6   ar
     6     6     7   ar
     7     7     8   ar
     8     8     9   ar
     9     9    10   ar
    10    10    11   ar
    11    11    12   ar
    12    12    13   ar
    13    13    14   ar
    14    14    15   ar
    15    15    16   ar
    16     2    17    1
    17    17    18   ar
    18    18    19   ar
    19    19    20   ar
    20    20    21   ar
    21    21    22   ar
    22     5     1   ar
    23    16     7   ar
    24    22    17   ar
    25     8     4   ar
    26    16    11   ar
    27     1    23    1
    28     9    24    1
    29    10    25    1
    30    12    26    1
    31    13    27    1
    32    15    28    1
    33    18    29    1
    34    19    30    1
    35    20    31    1
    36    21    32    1
