@<TRIPOS>MOLECULE
*****
 31 36 0 0 0
SMALL
GASTEIGER

@<TRIPOS>ATOM
      1 C           2.3623    0.2603   -1.5891 C.ar    1  UNL1        0.0017
      2 C           2.9699   -0.1483   -0.4190 C.ar    1  UNL1        0.1737
      3 O           2.0516   -0.3625    0.5765 O.2     1  UNL1       -0.4490
      4 C           0.8370   -0.0821    0.0206 C.ar    1  UNL1        0.1687
      5 C           0.9837    0.2925   -1.2696 C.ar    1  UNL1        0.0608
      6 S          -0.5456    0.6519   -1.9910 S.2     1  UNL1       -0.0827
      7 C          -1.3814    0.2818   -0.5027 C.ar    1  UNL1        0.0517
      8 C          -0.4859   -0.1030    0.4992 C.ar    1  UNL1        0.1214
      9 N          -0.8251   -0.4515    1.7620 N.ar    1  UNL1       -0.2501
     10 C          -2.1452   -0.4094    2.0304 C.ar    1  UNL1        0.0362
     11 C          -3.1545   -0.0483    1.1425 C.ar    1  UNL1        0.0035
     12 C          -4.5162   -0.0449    1.5526 C.ar    1  UNL1       -0.0504
     13 C          -5.5836    0.3082    0.7094 C.ar    1  UNL1       -0.0329
     14 C          -5.2412    0.6739   -0.6116 C.ar    1  UNL1        0.1005
     15 N          -6.1140    1.0409   -1.5614 N.ar    1  UNL1       -0.1908
     16 S          -5.2206    1.3664   -2.9193 S.2     1  UNL1        0.1165
     17 N          -3.6922    1.0568   -2.3630 N.ar    1  UNL1       -0.1901
     18 C          -3.8003    0.6797   -1.0768 C.ar    1  UNL1        0.1087
     19 C          -2.7548    0.3120   -0.1784 C.ar    1  UNL1        0.0276
     20 C           4.3691   -0.3828   -0.0727 C.ar    1  UNL1        0.1986
     21 N           5.2590   -0.1722   -1.0478 N.ar    1  UNL1       -0.2132
     22 C           6.5175   -0.3989   -0.6836 C.ar    1  UNL1        0.1201
     23 N           6.9272   -0.7987    0.5182 N.ar    1  UNL1       -0.2241
     24 C           5.9427   -0.9719    1.3981 C.ar    1  UNL1        0.1201
     25 N           4.6486   -0.7825    1.1691 N.ar    1  UNL1       -0.2132
     26 H           2.8464    0.4970   -2.5252 H       1  UNL1        0.0668
     27 H          -2.3837   -0.6953    3.0542 H       1  UNL1        0.0836
     28 H          -4.7636   -0.3303    2.5773 H       1  UNL1        0.0625
     29 H          -6.6135    0.3026    1.0465 H       1  UNL1        0.0640
     30 H           7.2833   -0.2437   -1.4362 H       1  UNL1        0.1048
     31 H           6.2232   -1.2977    2.3941 H       1  UNL1        0.1048
@<TRIPOS>BOND
     1     1     2   ar
     2     2     3   ar
     3     3     4   ar
     4     4     5   ar
     5     5     6   ar
     6     6     7   ar
     7     7     8   ar
     8     8     9   ar
     9     9    10   ar
    10    10    11   ar
    11    11    12   ar
    12    12    13   ar
    13    13    14   ar
    14    14    15   ar
    15    15    16   ar
    16    16    17   ar
    17    17    18   ar
    18    18    19   ar
    19     2    20    1
    20    20    21   ar
    21    21    22   ar
    22    22    23   ar
    23    23    24   ar
    24    24    25   ar
    25     5     1   ar
    26    19     7   ar
    27    25    20   ar
    28     8     4   ar
    29    19    11   ar
    30    18    14   ar
    31     1    26    1
    32    10    27    1
    33    12    28    1
    34    13    29    1
    35    22    30    1
    36    24    31    1
