@<TRIPOS>MOLECULE
*****
 31 35 0 0 0
SMALL
GASTEIGER

@<TRIPOS>ATOM
      1 C          -1.7018   -0.5486    0.5775 C.ar    1  UNL1       -0.0044
      2 C          -0.7766    0.1280   -0.2083 C.ar    1  UNL1        0.1544
      3 O          -1.4317    0.8796   -1.1643 O.2     1  UNL1       -0.4532
      4 C          -2.7733    0.6893   -0.9964 C.ar    1  UNL1        0.1379
      5 C          -3.8010    1.2635   -1.7528 C.ar    1  UNL1       -0.0166
      6 C          -5.1331    0.9419   -1.4231 C.ar    1  UNL1       -0.0300
      7 C          -5.3409    0.0510   -0.3385 C.ar    1  UNL1        0.1007
      8 N          -6.5307   -0.3757    0.1272 N.ar    1  UNL1       -0.1908
      9 S          -6.2039   -1.4073    1.4111 S.2     1  UNL1        0.1165
     10 N          -4.5239   -1.3604    1.4362 N.ar    1  UNL1       -0.1901
     11 C          -4.2568   -0.5360    0.4363 C.ar    1  UNL1        0.1106
     12 C          -2.9378   -0.1737    0.0560 C.ar    1  UNL1        0.0489
     13 C           0.6841    0.1969   -0.2210 C.ar    1  UNL1        0.1066
     14 C           1.4568   -0.5155    0.6925 C.ar    1  UNL1       -0.0249
     15 C           2.8544   -0.4148    0.6375 C.ar    1  UNL1       -0.0143
     16 C           3.6864   -1.1093    1.5320 C.ar    1  UNL1       -0.0539
     17 C           5.0756   -0.9889    1.4524 C.ar    1  UNL1       -0.0612
     18 C           5.6518   -0.1748    0.4804 C.ar    1  UNL1       -0.0611
     19 C           4.8401    0.5215   -0.4154 C.ar    1  UNL1       -0.0526
     20 C           3.4404    0.4067   -0.3432 C.ar    1  UNL1        0.0003
     21 C           2.5789    1.0781   -1.2107 C.ar    1  UNL1        0.0361
     22 N           1.2296    0.9917   -1.1711 N.ar    1  UNL1       -0.2513
     23 H          -1.4964   -1.2129    1.4041 H       1  UNL1        0.0663
     24 H          -3.5715    1.9386   -2.5711 H       1  UNL1        0.0655
     25 H          -5.9702    1.3564   -1.9737 H       1  UNL1        0.0641
     26 H           0.9864   -1.1436    1.4412 H       1  UNL1        0.0646
     27 H           3.2583   -1.7508    2.2993 H       1  UNL1        0.0624
     28 H           5.7079   -1.5318    2.1507 H       1  UNL1        0.0618
     29 H           6.7333   -0.0821    0.4196 H       1  UNL1        0.0618
     30 H           5.3036    1.1537   -1.1695 H       1  UNL1        0.0624
     31 H           2.9619    1.7293   -1.9922 H       1  UNL1        0.0836
@<TRIPOS>BOND
     1     1     2   ar
     2     2     3   ar
     3     3     4   ar
     4     4     5   ar
     5     5     6   ar
     6     6     7   ar
     7     7     8   ar
     8     8     9   ar
     9     9    10   ar
    10    10    11   ar
    11    11    12   ar
    12     2    13    1
    13    13    14   ar
    14    14    15   ar
    15    15    16   ar
    16    16    17   ar
    17    17    18   ar
    18    18    19   ar
    19    19    20   ar
    20    20    21   ar
    21    21    22   ar
    22    12     1   ar
    23    22    13   ar
    24    12     4   ar
    25    20    15   ar
    26    11     7   ar
    27     1    23    1
    28     5    24    1
    29     6    25    1
    30    14    26    1
    31    16    27    1
    32    17    28    1
    33    18    29    1
    34    19    30    1
    35    21    31    1
