@<TRIPOS>MOLECULE
*****
 35 41 0 0 0
SMALL
GASTEIGER

@<TRIPOS>ATOM
      1 C           1.5393   -1.2592    0.2977 C.ar    1  UNL1       -0.0228
      2 C           2.3642   -0.1669    0.0392 C.ar    1  UNL1        0.0255
      3 S           1.4337    1.2492   -0.3320 S.2     1  UNL1       -0.0859
      4 C          -0.0463    0.3953   -0.1449 C.ar    1  UNL1        0.0473
      5 C           0.1662   -0.9150    0.1868 C.ar    1  UNL1        0.0554
      6 N          -1.0541   -1.5579    0.3257 N.ar    1  UNL1       -0.3520
      7 C          -2.0658   -0.6555    0.0816 C.ar    1  UNL1        0.0765
      8 C          -1.4361    0.5289   -0.2034 C.ar    1  UNL1        0.0443
      9 C          -2.1439    1.7154   -0.5131 C.ar    1  UNL1        0.1108
     10 N          -1.5910    2.8813   -0.7949 N.ar    1  UNL1       -0.1901
     11 S          -2.9248    3.8593   -1.0637 S.2     1  UNL1        0.1165
     12 N          -4.1728    2.7666   -0.8127 N.ar    1  UNL1       -0.1901
     13 C          -3.5990    1.5824   -0.5060 C.ar    1  UNL1        0.1098
     14 C          -4.2726    0.3457   -0.2087 C.ar    1  UNL1        0.0306
     15 C          -5.6655    0.1615   -0.1877 C.ar    1  UNL1       -0.0489
     16 C          -6.1765   -1.0981    0.1183 C.ar    1  UNL1       -0.0429
     17 C          -5.2883   -2.1328    0.3933 C.ar    1  UNL1        0.0284
     18 N          -3.9403   -2.0078    0.3863 N.ar    1  UNL1       -0.2528
     19 C          -3.4629   -0.7789    0.0873 C.ar    1  UNL1        0.0970
     20 C           3.8443   -0.1438    0.0601 C.ar    1  UNL1        0.0350
     21 C           4.6120   -1.2868    0.3599 C.ar    1  UNL1        0.0380
     22 N           5.9797   -1.4263    0.4194 N.ar    1  UNL1       -0.2604
     23 C           6.7891   -0.3638    0.1682 C.ar    1  UNL1        0.0557
     24 C           6.1858    0.8663   -0.1503 C.ar    1  UNL1        0.1185
     25 N           6.8351    2.0093   -0.4246 N.ar    1  UNL1       -0.1892
     26 S           5.6699    3.1454   -0.7298 S.2     1  UNL1        0.1165
     27 N           4.3035    2.2401   -0.5279 N.ar    1  UNL1       -0.1900
     28 C           4.6730    0.9862   -0.2076 C.ar    1  UNL1        0.1110
     29 H           1.8822   -2.2534    0.5527 H       1  UNL1        0.0650
     30 H          -1.1715   -2.5338    0.5678 H       1  UNL1        0.1660
     31 H          -6.3357    0.9888   -0.4068 H       1  UNL1        0.0625
     32 H          -7.2472   -1.2717    0.1425 H       1  UNL1        0.0633
     33 H          -5.6562   -3.1267    0.6354 H       1  UNL1        0.0830
     34 H           4.1137   -2.2290    0.5866 H       1  UNL1        0.0836
     35 H           7.8588   -0.5145    0.2252 H       1  UNL1        0.0852
@<TRIPOS>BOND
     1     1     2   ar
     2     2     3   ar
     3     3     4   ar
     4     4     5   ar
     5     5     6   ar
     6     6     7   ar
     7     7     8   ar
     8     8     9   ar
     9     9    10   ar
    10    10    11   ar
    11    11    12   ar
    12    12    13   ar
    13    13    14   ar
    14    14    15   ar
    15    15    16   ar
    16    16    17   ar
    17    17    18   ar
    18    18    19   ar
    19     2    20    1
    20    20    21   ar
    21    21    22   ar
    22    22    23   ar
    23    23    24   ar
    24    24    25   ar
    25    25    26   ar
    26    26    27   ar
    27    27    28   ar
    28     5     1   ar
    29    19     7   ar
    30    28    20   ar
    31     8     4   ar
    32    13     9   ar
    33    19    14   ar
    34    28    24   ar
    35     1    29    1
    36     6    30    1
    37    15    31    1
    38    16    32    1
    39    17    33    1
    40    21    34    1
    41    23    35    1
