@<TRIPOS>MOLECULE
*****
 44 51 0 0 0
SMALL
GASTEIGER

@<TRIPOS>ATOM
      1 C           2.3541   -0.7321   -0.2851 C.ar    1  UNL1       -0.0385
      2 C           2.7481    0.5113    0.1686 C.ar    1  UNL1        0.0241
      3 S           1.3548    1.4380    0.5184 S.2     1  UNL1       -0.0875
      4 C           0.2378    0.1950    0.0699 C.ar    1  UNL1        0.0282
      5 C           0.9229   -0.9435   -0.3528 C.ar    1  UNL1       -0.0019
      6 C           0.1597   -2.0833   -0.7659 C.ar    1  UNL1       -0.0090
      7 C           0.8480   -3.2440   -1.1968 C.ar    1  UNL1       -0.0534
      8 C           0.1610   -4.3819   -1.6097 C.ar    1  UNL1       -0.0611
      9 C          -1.2230   -4.3829   -1.6005 C.ar    1  UNL1       -0.0611
     10 C          -1.9180   -3.2457   -1.1782 C.ar    1  UNL1       -0.0534
     11 C          -1.2609   -2.0624   -0.7483 C.ar    1  UNL1       -0.0095
     12 C          -1.9431   -0.8847   -0.3113 C.ar    1  UNL1       -0.0085
     13 C          -3.3624   -0.7651   -0.2575 C.ar    1  UNL1       -0.0456
     14 C          -4.0377    0.3920    0.1720 C.ar    1  UNL1       -0.0151
     15 C          -5.4610    0.4385    0.1990 C.ar    1  UNL1       -0.0519
     16 C          -6.2094    1.5565    0.6146 C.ar    1  UNL1       -0.0329
     17 C          -5.4654    2.6848    1.0236 C.ar    1  UNL1        0.1005
     18 N          -5.9813    3.8463    1.4536 N.ar    1  UNL1       -0.1908
     19 S          -4.6914    4.8300    1.8057 S.2     1  UNL1        0.1165
     20 N          -3.4232    3.8284    1.4292 N.ar    1  UNL1       -0.1902
     21 C          -3.9589    2.6681    1.0070 C.ar    1  UNL1        0.1076
     22 C          -3.2497    1.4962    0.5719 C.ar    1  UNL1        0.0109
     23 C          -1.8453    1.4208    0.5344 C.ar    1  UNL1       -0.0431
     24 C          -1.1912    0.2449    0.0982 C.ar    1  UNL1       -0.0023
     25 C           4.0943    1.0779    0.3672 C.ar    1  UNL1        0.0350
     26 C           4.3676    2.3753    0.8416 C.ar    1  UNL1        0.0380
     27 N           5.5877    2.9777    1.0543 N.ar    1  UNL1       -0.2604
     28 C           6.7431    2.3074    0.8001 C.ar    1  UNL1        0.0557
     29 C           6.6488    0.9900    0.3171 C.ar    1  UNL1        0.1185
     30 N           7.6807    0.1859    0.0148 N.ar    1  UNL1       -0.1892
     31 S           7.0250   -1.2425   -0.5050 S.2     1  UNL1        0.1165
     32 N           5.4105   -0.9050   -0.3699 N.ar    1  UNL1       -0.1900
     33 C           5.2913    0.3546    0.0933 C.ar    1  UNL1        0.1110
     34 H           3.0619   -1.4977   -0.5711 H       1  UNL1        0.0635
     35 H           1.9339   -3.2801   -1.2176 H       1  UNL1        0.0624
     36 H           0.7083   -5.2619   -1.9366 H       1  UNL1        0.0618
     37 H          -1.7700   -5.2660   -1.9208 H       1  UNL1        0.0618
     38 H          -3.0019   -3.3118   -1.1949 H       1  UNL1        0.0624
     39 H          -3.9791   -1.6073   -0.5624 H       1  UNL1        0.0630
     40 H          -6.0225   -0.4419   -0.1203 H       1  UNL1        0.0624
     41 H          -7.2927    1.5568    0.6223 H       1  UNL1        0.0640
     42 H          -1.2784    2.2940    0.8510 H       1  UNL1        0.0631
     43 H           3.5485    3.0494    1.0948 H       1  UNL1        0.0836
     44 H           7.6784    2.8198    0.9818 H       1  UNL1        0.0852
@<TRIPOS>BOND
     1     1     2   ar
     2     2     3   ar
     3     3     4   ar
     4     4     5   ar
     5     5     6   ar
     6     6     7   ar
     7     7     8   ar
     8     8     9   ar
     9     9    10   ar
    10    10    11   ar
    11    11    12   ar
    12    12    13   ar
    13    13    14   ar
    14    14    15   ar
    15    15    16   ar
    16    16    17   ar
    17    17    18   ar
    18    18    19   ar
    19    19    20   ar
    20    20    21   ar
    21    21    22   ar
    22    22    23   ar
    23    23    24   ar
    24     2    25    1
    25    25    26   ar
    26    26    27   ar
    27    27    28   ar
    28    28    29   ar
    29    29    30   ar
    30    30    31   ar
    31    31    32   ar
    32    32    33   ar
    33     5     1   ar
    34    11     6   ar
    35    24    12   ar
    36    33    25   ar
    37    24     4   ar
    38    33    29   ar
    39    22    14   ar
    40    21    17   ar
    41     1    34    1
    42     7    35    1
    43     8    36    1
    44     9    37    1
    45    10    38    1
    46    13    39    1
    47    15    40    1
    48    16    41    1
    49    23    42    1
    50    26    43    1
    51    28    44    1
