@<TRIPOS>MOLECULE
*****
 47 53 0 0 0
SMALL
GASTEIGER

@<TRIPOS>ATOM
      1 SI          1.2731   -3.1902   -2.2525 Si      1  UNL1        0.0000
      2 C           2.4076   -2.0164   -1.3575 C.2     1  UNL1        0.0000
      3 C           1.7129   -1.0395   -0.7373 C.ar    1  UNL1        0.0000
      4 C           2.2833    0.1237   -0.0710 C.ar    1  UNL1        0.0000
      5 C           1.4174    1.0666    0.3597 C.ar    1  UNL1        0.0000
      6 C          -0.0592    0.9811    0.2548 C.ar    1  UNL1        0.0000
      7 C          -0.6470   -0.1909   -0.1500 C.ar    1  UNL1        0.0000
      8 C          -2.1198   -0.3497    0.0451 C.ar    1  UNL1        0.0000
      9 C          -2.8024   -1.5638    0.2507 C.ar    1  UNL1        0.0000
     10 C          -2.2915   -2.8135    0.5205 C.ar    1  UNL1        0.0000
     11 N          -3.3481   -3.6858    0.6738 N.ar    1  UNL1        0.0000
     12 C          -4.5400   -3.0052    0.5826 C.ar    1  UNL1        0.0000
     13 C          -4.2245   -1.6889    0.3651 C.ar    1  UNL1        0.0000
     14 C          -5.1441   -0.6558    0.3207 C.ar    1  UNL1        0.0000
     15 C          -4.4754    0.5856    0.2608 C.ar    1  UNL1        0.0000
     16 C          -3.0374    0.7455    0.1748 C.ar    1  UNL1        0.0000
     17 C          -2.4031    2.0670    0.3869 C.ar    1  UNL1        0.0000
     18 C          -3.0513    3.2407    0.5484 C.2     1  UNL1        0.0000
     19 SI         -1.8709    4.6242    0.9514 Si      1  UNL1        0.0000
     20 C          -0.4840    3.3868    0.8381 C.2     1  UNL1        0.0000
     21 C          -0.9281    2.1453    0.5379 C.ar    1  UNL1        0.0000
     22 C           0.2349   -1.1696   -0.8283 C.ar    1  UNL1        0.0000
     23 C          -0.1585   -2.1666   -1.6509 C.2     1  UNL1        0.0000
     24 C           3.7237    0.3947    0.1135 C.ar    1  UNL1        0.0000
     25 C           4.5651    0.5599   -0.9845 C.ar    1  UNL1        0.0000
     26 C           5.9116    0.8381   -0.7638 C.ar    1  UNL1        0.0000
     27 C           6.3770    0.9507    0.5404 C.ar    1  UNL1        0.0000
     28 C           5.4712    0.7856    1.5747 C.ar    1  UNL1        0.0000
     29 N           4.1601    0.5186    1.3917 N.ar    1  UNL1        0.0000
     30 H           1.2841   -4.5531   -1.6668 H       1  UNL1        0.0000
     31 H           1.4474   -3.1285   -3.7240 H       1  UNL1        0.0000
     32 H           3.4777   -2.1249   -1.4249 H       1  UNL1        0.0000
     33 H           1.8160    1.9472    0.8554 H       1  UNL1        0.0000
     34 H          -1.2795   -3.1750    0.6375 H       1  UNL1        0.0000
     35 H          -3.2567   -4.6728    0.8755 H       1  UNL1        0.0000
     36 H          -5.4827   -3.5163    0.7222 H       1  UNL1        0.0000
     37 H          -6.2154   -0.7535    0.4175 H       1  UNL1        0.0000
     38 H          -5.1026    1.4726    0.3299 H       1  UNL1        0.0000
     39 H          -4.1099    3.4330    0.5122 H       1  UNL1        0.0000
     40 H          -2.0601    5.1507    2.3246 H       1  UNL1        0.0000
     41 H          -1.8106    5.6487   -0.1190 H       1  UNL1        0.0000
     42 H           0.5332    3.7190    0.9594 H       1  UNL1        0.0000
     43 H          -1.1653   -2.4099   -1.9496 H       1  UNL1        0.0000
     44 H           4.1796    0.4815   -1.9958 H       1  UNL1        0.0000
     45 H           6.5885    0.9693   -1.6030 H       1  UNL1        0.0000
     46 H           7.4192    1.1662    0.7473 H       1  UNL1        0.0000
     47 H           5.7843    0.8676    2.6116 H       1  UNL1        0.0000
@<TRIPOS>BOND
     1     1     2    1
     2     2     3    2
     3     3     4   ar
     4     4     5   ar
     5     5     6   ar
     6     6     7   ar
     7     7     8   ar
     8     8     9   ar
     9     9    10   ar
    10    10    11   ar
    11    11    12   ar
    12    12    13   ar
    13    13    14   ar
    14    14    15   ar
    15    15    16   ar
    16    16    17   ar
    17    17    18    2
    18    18    19    1
    19    19    20    1
    20    20    21    2
    21     7    22   ar
    22    22    23    2
    23     4    24    1
    24    24    25   ar
    25    25    26   ar
    26    26    27   ar
    27    27    28   ar
    28    28    29   ar
    29    23     1    1
    30    29    24   ar
    31    22     3   ar
    32    21     6   ar
    33    16     8   ar
    34    21    17   ar
    35    13     9   ar
    36     1    30    1
    37     1    31    1
    38     2    32    1
    39     5    33    1
    40    10    34    1
    41    11    35    1
    42    12    36    1
    43    14    37    1
    44    15    38    1
    45    18    39    1
    46    19    40    1
    47    19    41    1
    48    20    42    1
    49    23    43    1
    50    25    44    1
    51    26    45    1
    52    27    46    1
    53    28    47    1
