@<TRIPOS>MOLECULE
*****
 35 40 0 0 0
SMALL
GASTEIGER

@<TRIPOS>ATOM
      1 C           1.7651    1.2967   -0.9799 C.ar    1  UNL1       -0.0377
      2 C           2.4567    0.2105   -0.4495 C.ar    1  UNL1        0.0206
      3 S           1.3315   -0.9081    0.2400 S.2     1  UNL1       -0.0861
      4 C           0.0192    0.0521   -0.1742 C.ar    1  UNL1        0.0467
      5 C           0.3408    1.2177   -0.8263 C.ar    1  UNL1        0.0099
      6 C          -0.7170    2.0673   -1.2008 C.ar    1  UNL1        0.0366
      7 N          -2.0312    1.8188   -0.9645 N.ar    1  UNL1       -0.2521
      8 C          -2.3933    0.6846   -0.3261 C.ar    1  UNL1        0.0994
      9 C          -1.4615   -0.2348    0.0958 C.ar    1  UNL1        0.0806
     10 N          -2.0675   -1.2909    0.7111 N.ar    1  UNL1       -0.3520
     11 C          -3.4374   -1.0898    0.7099 C.ar    1  UNL1        0.0512
     12 C          -4.4868   -1.8769    1.2152 C.ar    1  UNL1       -0.0356
     13 C          -5.8125   -1.4275    1.0769 C.ar    1  UNL1       -0.0315
     14 C          -6.0184   -0.1876    0.4261 C.ar    1  UNL1        0.1007
     15 N          -7.2132    0.3958    0.2054 N.ar    1  UNL1       -0.1908
     16 S          -6.9006    1.8366   -0.5941 S.2     1  UNL1        0.1165
     17 N          -5.2306    1.7816   -0.6948 N.ar    1  UNL1       -0.1900
     18 C          -4.9405    0.6356   -0.1010 C.ar    1  UNL1        0.1110
     19 C          -3.6143    0.1303    0.0674 C.ar    1  UNL1        0.0538
     20 C           3.9195   -0.0463   -0.4256 C.ar    1  UNL1       -0.0113
     21 C           4.4796   -1.2002    0.1515 C.ar    1  UNL1       -0.0535
     22 C           5.8630   -1.4164    0.1598 C.ar    1  UNL1       -0.0612
     23 C           6.7203   -0.4821   -0.4097 C.ar    1  UNL1       -0.0617
     24 C           6.1947    0.6677   -0.9873 C.ar    1  UNL1       -0.0612
     25 C           4.8112    0.8815   -0.9943 C.ar    1  UNL1       -0.0535
     26 H           2.2494    2.1329   -1.4676 H       1  UNL1        0.0635
     27 H          -0.5233    3.0028   -1.7191 H       1  UNL1        0.0836
     28 H          -1.5911   -2.0912    1.1045 H       1  UNL1        0.1660
     29 H          -4.2865   -2.8247    1.7094 H       1  UNL1        0.0639
     30 H          -6.6506   -2.0038    1.4524 H       1  UNL1        0.0640
     31 H           3.8560   -1.9628    0.6104 H       1  UNL1        0.0624
     32 H           6.2664   -2.3183    0.6135 H       1  UNL1        0.0618
     33 H           7.7940   -0.6496   -0.4034 H       1  UNL1        0.0618
     34 H           6.8587    1.4031   -1.4348 H       1  UNL1        0.0618
     35 H           4.4503    1.7953   -1.4578 H       1  UNL1        0.0624
@<TRIPOS>BOND
     1     1     2   ar
     2     2     3   ar
     3     3     4   ar
     4     4     5   ar
     5     5     6   ar
     6     6     7   ar
     7     7     8   ar
     8     8     9   ar
     9     9    10   ar
    10    10    11   ar
    11    11    12   ar
    12    12    13   ar
    13    13    14   ar
    14    14    15   ar
    15    15    16   ar
    16    16    17   ar
    17    17    18   ar
    18    18    19   ar
    19     2    20    1
    20    20    21   ar
    21    21    22   ar
    22    22    23   ar
    23    23    24   ar
    24    24    25   ar
    25     5     1   ar
    26    19     8   ar
    27    25    20   ar
    28     9     4   ar
    29    19    11   ar
    30    18    14   ar
    31     1    26    1
    32     6    27    1
    33    10    28    1
    34    12    29    1
    35    13    30    1
    36    21    31    1
    37    22    32    1
    38    23    33    1
    39    24    34    1
    40    25    35    1
