@<TRIPOS>MOLECULE
*****
 32 36 0 0 0
SMALL
GASTEIGER

@<TRIPOS>ATOM
      1 C           2.2694   -0.4812   -0.8712 C.ar    1  UNL1       -0.0361
      2 C           3.0716    0.1760    0.0453 C.ar    1  UNL1        0.0575
      3 S           2.1089    0.9344    1.2432 S.2     1  UNL1       -0.0851
      4 C           0.6363    0.3906    0.5448 C.ar    1  UNL1        0.0207
      5 C          -0.6642    0.6343    1.0033 C.ar    1  UNL1       -0.0377
      6 C          -1.7709    0.1177    0.3181 C.ar    1  UNL1        0.0085
      7 C          -1.5356   -0.6390   -0.8233 C.ar    1  UNL1        0.0481
      8 C          -0.2477   -0.8874   -1.2877 C.ar    1  UNL1       -0.0295
      9 C           0.8658   -0.3691   -0.6006 C.ar    1  UNL1       -0.0082
     10 N          -2.7582   -1.0297   -1.3129 N.ar    1  UNL1       -0.3541
     11 C          -3.7780   -0.5498   -0.5244 C.ar    1  UNL1        0.0475
     12 C          -5.1641   -0.7025   -0.6483 C.ar    1  UNL1       -0.0378
     13 C          -5.9709   -0.0928    0.3171 C.ar    1  UNL1       -0.0598
     14 C          -5.4119    0.6389    1.3623 C.ar    1  UNL1       -0.0611
     15 C          -4.0237    0.7812    1.4707 C.ar    1  UNL1       -0.0520
     16 C          -3.1874    0.1761    0.5098 C.ar    1  UNL1        0.0074
     17 C           4.5362    0.2674    0.0724 C.ar    1  UNL1        0.1695
     18 N           5.1122    0.9594    1.0575 N.ar    1  UNL1       -0.2155
     19 C           6.4394    0.9873    1.0004 C.ar    1  UNL1        0.1201
     20 N           7.1961    0.4021    0.0751 N.ar    1  UNL1       -0.2241
     21 C           6.5049   -0.2565   -0.8519 C.ar    1  UNL1        0.1201
     22 N           5.1811   -0.3643   -0.9136 N.ar    1  UNL1       -0.2155
     23 H           2.6756   -1.0284   -1.7141 H       1  UNL1        0.0636
     24 H          -0.8191    1.2299    1.8993 H       1  UNL1        0.0636
     25 H          -0.0923   -1.4830   -2.1839 H       1  UNL1        0.0644
     26 H          -2.8924   -1.5929   -2.1394 H       1  UNL1        0.1659
     27 H          -5.6038   -1.2715   -1.4609 H       1  UNL1        0.0638
     28 H          -7.0520   -0.1919    0.2501 H       1  UNL1        0.0618
     29 H          -6.0579    1.1048    2.1023 H       1  UNL1        0.0618
     30 H          -3.5965    1.3533    2.2888 H       1  UNL1        0.0624
     31 H           6.9536    1.5383    1.7807 H       1  UNL1        0.1048
     32 H           7.0757   -0.7520   -1.6301 H       1  UNL1        0.1048
@<TRIPOS>BOND
     1     1     2   ar
     2     2     3   ar
     3     3     4   ar
     4     4     5   ar
     5     5     6   ar
     6     6     7   ar
     7     7     8   ar
     8     8     9   ar
     9     7    10   ar
    10    10    11   ar
    11    11    12   ar
    12    12    13   ar
    13    13    14   ar
    14    14    15   ar
    15    15    16   ar
    16     2    17    1
    17    17    18   ar
    18    18    19   ar
    19    19    20   ar
    20    20    21   ar
    21    21    22   ar
    22     9     1   ar
    23    16    11   ar
    24    22    17   ar
    25     9     4   ar
    26    16     6   ar
    27     1    23    1
    28     5    24    1
    29     8    25    1
    30    10    26    1
    31    12    27    1
    32    13    28    1
    33    14    29    1
    34    15    30    1
    35    19    31    1
    36    21    32    1
