@<TRIPOS>MOLECULE
*****
 34 38 0 0 0
SMALL
GASTEIGER

@<TRIPOS>ATOM
      1 C           1.7040   -0.6140    0.0982 C.ar    1  UNL1       -0.0391
      2 C           2.3308    0.4663   -0.5029 C.ar    1  UNL1        0.0205
      3 S           1.1433    1.5539   -1.1047 S.2     1  UNL1       -0.0882
      4 C          -0.1730    0.5952   -0.5699 C.ar    1  UNL1        0.0207
      5 C          -1.5388    0.8633   -0.7163 C.ar    1  UNL1       -0.0362
      6 C          -2.4967   -0.0281   -0.2195 C.ar    1  UNL1        0.0267
      7 C          -2.0512   -1.1806    0.4197 C.ar    1  UNL1        0.0496
      8 C          -0.6953   -1.4553    0.5698 C.ar    1  UNL1       -0.0295
      9 C           0.2692   -0.5588    0.0702 C.ar    1  UNL1       -0.0082
     10 N          -3.1640   -1.8876    0.8144 N.ar    1  UNL1       -0.3529
     11 C          -4.3124   -1.2274    0.4498 C.ar    1  UNL1        0.0660
     12 C          -5.6586   -1.5448    0.6285 C.ar    1  UNL1       -0.0348
     13 C          -6.5706   -0.6244    0.1190 C.ar    1  UNL1       -0.0416
     14 C          -6.1024    0.5181   -0.5163 C.ar    1  UNL1        0.0284
     15 N          -4.8049    0.8410   -0.6980 N.ar    1  UNL1       -0.2528
     16 C          -3.9195   -0.0596   -0.1995 C.ar    1  UNL1        0.0962
     17 C           3.7834    0.7382   -0.6566 C.ar    1  UNL1       -0.0113
     18 C           4.2776    1.8893   -1.2966 C.ar    1  UNL1       -0.0535
     19 C           5.6523    2.1209   -1.4277 C.ar    1  UNL1       -0.0612
     20 C           6.5672    1.2052   -0.9211 C.ar    1  UNL1       -0.0617
     21 C           6.1078    0.0586   -0.2837 C.ar    1  UNL1       -0.0612
     22 C           4.7327   -0.1705   -0.1539 C.ar    1  UNL1       -0.0535
     23 H           2.2392   -1.4364    0.5540 H       1  UNL1        0.0635
     24 H          -1.8698    1.7693   -1.2189 H       1  UNL1        0.0636
     25 H          -0.3701   -2.3624    1.0730 H       1  UNL1        0.0644
     26 H          -3.1390   -2.7699    1.3043 H       1  UNL1        0.1660
     27 H          -5.9805   -2.4491    1.1313 H       1  UNL1        0.0639
     28 H          -7.6379   -0.7945    0.2154 H       1  UNL1        0.0633
     29 H          -6.8055    1.2440   -0.9182 H       1  UNL1        0.0830
     30 H           3.6061    2.6372   -1.7105 H       1  UNL1        0.0624
     31 H           6.0026    3.0204   -1.9278 H       1  UNL1        0.0618
     32 H           7.6340    1.3850   -1.0229 H       1  UNL1        0.0618
     33 H           6.8168   -0.6623    0.1152 H       1  UNL1        0.0618
     34 H           4.4236   -1.0806    0.3519 H       1  UNL1        0.0624
@<TRIPOS>BOND
     1     1     2   ar
     2     2     3   ar
     3     3     4   ar
     4     4     5   ar
     5     5     6   ar
     6     6     7   ar
     7     7     8   ar
     8     8     9   ar
     9     7    10   ar
    10    10    11   ar
    11    11    12   ar
    12    12    13   ar
    13    13    14   ar
    14    14    15   ar
    15    15    16   ar
    16     2    17    1
    17    17    18   ar
    18    18    19   ar
    19    19    20   ar
    20    20    21   ar
    21    21    22   ar
    22     9     1   ar
    23    16    11   ar
    24    22    17   ar
    25     9     4   ar
    26    16     6   ar
    27     1    23    1
    28     5    24    1
    29     8    25    1
    30    10    26    1
    31    12    27    1
    32    13    28    1
    33    14    29    1
    34    18    30    1
    35    19    31    1
    36    20    32    1
    37    21    33    1
    38    22    34    1
