@<TRIPOS>MOLECULE
*****
 41 47 0 0 0
SMALL
GASTEIGER

@<TRIPOS>ATOM
      1 C           7.0169    0.0458    0.2397 C.ar    1  UNL1       -0.0437
      2 C           6.5488    1.3401    0.2563 C.ar    1  UNL1        0.0023
      3 N           5.1809    1.2927    0.1877 N.ar    1  UNL1       -0.3583
      4 C           4.7610   -0.0141    0.1269 C.ar    1  UNL1        0.0821
      5 C           5.8892   -0.8097    0.1583 C.ar    1  UNL1       -0.0334
      6 C           3.3743   -0.3517    0.0486 C.ar    1  UNL1        0.1523
      7 C           2.7906   -1.6122   -0.0188 C.ar    1  UNL1       -0.0059
      8 C           1.4280   -1.3588   -0.0743 C.ar    1  UNL1        0.0321
      9 C           0.3059   -2.1903   -0.2163 C.ar    1  UNL1        0.0312
     10 C           0.2371   -3.5330   -0.3974 C.ar    1  UNL1        0.1001
     11 O          -1.0778   -3.8345   -0.6322 O.2     1  UNL1       -0.4698
     12 C          -1.7862   -2.6575   -0.5857 C.ar    1  UNL1        0.1000
     13 C          -0.9734   -1.5958   -0.2472 C.ar    1  UNL1        0.0289
     14 C          -1.3229   -0.2086   -0.1293 C.ar    1  UNL1        0.0047
     15 C          -0.1232    0.5800   -0.1172 C.ar    1  UNL1        0.0263
     16 C          -0.1885    1.9754   -0.2011 C.ar    1  UNL1       -0.0499
     17 C          -1.4212    2.6188   -0.3245 C.ar    1  UNL1       -0.0533
     18 C          -2.6358    1.9251   -0.2675 C.ar    1  UNL1       -0.0166
     19 C          -3.8433    2.6979   -0.3824 C.ar    1  UNL1       -0.0534
     20 C          -5.1493    2.1895   -0.2632 C.ar    1  UNL1       -0.0529
     21 C          -5.1292    0.8435    0.0675 C.ar    1  UNL1       -0.0103
     22 C          -6.2892    0.1677    0.3585 C.ar    1  UNL1       -0.0166
     23 S          -5.9551   -1.4245    0.8948 S.2     1  UNL1       -0.1039
     24 C          -4.2591   -1.1864    0.7428 C.ar    1  UNL1       -0.0160
     25 C          -3.9407    0.0275    0.1775 C.ar    1  UNL1       -0.0026
     26 C          -2.6047    0.4942   -0.0773 C.ar    1  UNL1       -0.0012
     27 C           1.1724   -0.0113   -0.0530 C.ar    1  UNL1        0.1441
     28 O           2.3900    0.6194    0.0195 O.2     1  UNL1       -0.4527
     29 H           8.0567   -0.2520    0.2817 H       1  UNL1        0.0633
     30 H           7.0678    2.2877    0.3110 H       1  UNL1        0.0807
     31 H           4.5591    2.0907    0.1823 H       1  UNL1        0.1654
     32 H           5.9077   -1.8912    0.1263 H       1  UNL1        0.0640
     33 H           3.3115   -2.5580   -0.0328 H       1  UNL1        0.0662
     34 H           0.9335   -4.3573   -0.4449 H       1  UNL1        0.1036
     35 H          -2.8282   -2.7680   -0.8477 H       1  UNL1        0.1036
     36 H           0.7195    2.5753   -0.2154 H       1  UNL1        0.0625
     37 H          -1.4146    3.7027   -0.4378 H       1  UNL1        0.0624
     38 H          -3.7574    3.7716   -0.5655 H       1  UNL1        0.0624
     39 H          -6.0317    2.8097   -0.3450 H       1  UNL1        0.0624
     40 H          -7.3095    0.5249    0.3296 H       1  UNL1        0.0699
     41 H          -3.6102   -1.9649    1.1116 H       1  UNL1        0.0700
@<TRIPOS>BOND
     1     1     2   ar
     2     2     3   ar
     3     3     4   ar
     4     4     5   ar
     5     4     6    1
     6     6     7   ar
     7     7     8   ar
     8     8     9   ar
     9     9    10   ar
    10    10    11   ar
    11    11    12   ar
    12    12    13   ar
    13    13    14   ar
    14    14    15   ar
    15    15    16   ar
    16    16    17   ar
    17    17    18   ar
    18    18    19   ar
    19    19    20   ar
    20    20    21   ar
    21    21    22   ar
    22    22    23   ar
    23    23    24   ar
    24    24    25   ar
    25    25    26   ar
    26    15    27   ar
    27    27    28   ar
    28     5     1   ar
    29    28     6   ar
    30    27     8   ar
    31    13     9   ar
    32    26    14   ar
    33    26    18   ar
    34    25    21   ar
    35     1    29    1
    36     2    30    1
    37     3    31    1
    38     5    32    1
    39     7    33    1
    40    10    34    1
    41    12    35    1
    42    16    36    1
    43    17    37    1
    44    19    38    1
    45    20    39    1
    46    22    40    1
    47    24    41    1
