@<TRIPOS>MOLECULE
*****
 43 49 0 0 0
SMALL
GASTEIGER

@<TRIPOS>ATOM
      1 C           6.7230    0.5216   -0.0035 C.ar    1  UNL1       -0.0438
      2 C           6.1761    1.5460    0.7320 C.ar    1  UNL1        0.0022
      3 N           4.8126    1.4015    0.7060 N.ar    1  UNL1       -0.3595
      4 C           4.4662    0.2963   -0.0370 C.ar    1  UNL1        0.0629
      5 C           5.6488   -0.2641   -0.4870 C.ar    1  UNL1       -0.0350
      6 C           3.1197   -0.1406   -0.2654 C.ar    1  UNL1        0.0639
      7 C           2.6781   -1.2311   -0.9933 C.ar    1  UNL1       -0.0265
      8 C           1.2917   -1.1927   -0.8919 C.ar    1  UNL1        0.0116
      9 C           0.3260   -2.0542   -1.4336 C.ar    1  UNL1        0.0296
     10 C           0.5248   -3.1542   -2.2027 C.ar    1  UNL1        0.1000
     11 O          -0.7066   -3.6649   -2.4883 O.2     1  UNL1       -0.4698
     12 C          -1.6356   -2.8546   -1.8796 C.ar    1  UNL1        0.1000
     13 C          -1.0424   -1.8117   -1.1925 C.ar    1  UNL1        0.0288
     14 C          -1.6509   -0.7522   -0.4293 C.ar    1  UNL1        0.0032
     15 C          -3.1153   -0.4862   -0.1668 C.ar    1  UNL1       -0.0088
     16 C          -4.1992   -1.2658   -0.6454 C.ar    1  UNL1       -0.0534
     17 C          -5.5513   -0.9855   -0.3792 C.ar    1  UNL1       -0.0611
     18 C          -5.9042    0.1071    0.3929 C.ar    1  UNL1       -0.0611
     19 C          -4.9032    0.9196    0.8987 C.ar    1  UNL1       -0.0534
     20 C          -3.5403    0.6295    0.6251 C.ar    1  UNL1       -0.0081
     21 C          -2.4655    1.4082    1.1038 C.ar    1  UNL1        0.0078
     22 C          -2.5773    2.5350    1.8865 C.ar    1  UNL1        0.0100
     23 N          -1.3088    2.9904    2.1318 N.ar    1  UNL1       -0.3659
     24 C          -0.3891    2.1691    1.5161 C.ar    1  UNL1        0.0101
     25 C          -1.0749    1.1673    0.8626 C.ar    1  UNL1        0.0097
     26 C          -0.5634    0.0998    0.0992 C.ar    1  UNL1        0.0164
     27 C           0.8280   -0.1354   -0.1380 C.ar    1  UNL1        0.0561
     28 N           1.9981    0.4988    0.2360 N.ar    1  UNL1       -0.3525
     29 H           7.7785    0.3550   -0.1753 H       1  UNL1        0.0633
     30 H           6.6369    2.3632    1.2703 H       1  UNL1        0.0807
     31 H           4.1676    2.0234    1.1693 H       1  UNL1        0.1654
     32 H           5.7338   -1.1503   -1.1023 H       1  UNL1        0.0639
     33 H           3.2972   -1.9448   -1.5187 H       1  UNL1        0.0645
     34 H           1.3731   -3.6820   -2.6123 H       1  UNL1        0.1036
     35 H          -2.6399   -3.1952   -2.0603 H       1  UNL1        0.1036
     36 H          -4.0336   -2.1388   -1.2559 H       1  UNL1        0.0624
     37 H          -6.3238   -1.6348   -0.7849 H       1  UNL1        0.0618
     38 H          -6.9480    0.3241    0.5988 H       1  UNL1        0.0618
     39 H          -5.1813    1.7764    1.5043 H       1  UNL1        0.0624
     40 H          -3.4298    3.0599    2.2943 H       1  UNL1        0.0813
     41 H          -1.0826    3.8083    2.6833 H       1  UNL1        0.1648
     42 H           0.6518    2.4138    1.6284 H       1  UNL1        0.0813
     43 H           2.0349    1.3248    0.8034 H       1  UNL1        0.1660
@<TRIPOS>BOND
     1     1     2   ar
     2     2     3   ar
     3     3     4   ar
     4     4     5   ar
     5     4     6    1
     6     6     7   ar
     7     7     8   ar
     8     8     9   ar
     9     9    10   ar
    10    10    11   ar
    11    11    12   ar
    12    12    13   ar
    13    13    14   ar
    14    14    15   ar
    15    15    16   ar
    16    16    17   ar
    17    17    18   ar
    18    18    19   ar
    19    19    20   ar
    20    20    21   ar
    21    21    22   ar
    22    22    23   ar
    23    23    24   ar
    24    24    25   ar
    25    25    26   ar
    26    26    27   ar
    27    27    28   ar
    28     5     1   ar
    29    28     6   ar
    30    27     8   ar
    31    13     9   ar
    32    26    14   ar
    33    20    15   ar
    34    25    21   ar
    35     1    29    1
    36     2    30    1
    37     3    31    1
    38     5    32    1
    39     7    33    1
    40    10    34    1
    41    12    35    1
    42    16    36    1
    43    17    37    1
    44    18    38    1
    45    19    39    1
    46    22    40    1
    47    23    41    1
    48    24    42    1
    49    28    43    1
