@<TRIPOS>MOLECULE
*****
 38 44 0 0 0
SMALL
GASTEIGER

@<TRIPOS>ATOM
      1 C           6.8707    0.7287    0.4319 C.ar    1  UNL1       -0.0437
      2 C           6.2421    1.6707    1.2140 C.ar    1  UNL1        0.0023
      3 N           4.8900    1.4828    1.0927 N.ar    1  UNL1       -0.3583
      4 C           4.6384    0.4325    0.2431 C.ar    1  UNL1        0.0821
      5 C           5.8596   -0.0532   -0.1812 C.ar    1  UNL1       -0.0334
      6 C           3.3067    0.0160   -0.0648 C.ar    1  UNL1        0.1524
      7 C           2.8901   -1.0164   -0.8959 C.ar    1  UNL1       -0.0045
      8 C           1.5000   -0.9802   -0.8338 C.ar    1  UNL1        0.0496
      9 C           0.5206   -1.7789   -1.4614 C.ar    1  UNL1        0.1112
     10 N           0.8551   -2.7678   -2.2748 N.ar    1  UNL1       -0.1900
     11 S          -0.6347   -3.3707   -2.7308 S.2     1  UNL1        0.1165
     12 N          -1.6441   -2.3521   -1.8774 N.ar    1  UNL1       -0.1901
     13 C          -0.8877   -1.4792   -1.1841 C.ar    1  UNL1        0.1091
     14 C          -1.3464   -0.4120   -0.3040 C.ar    1  UNL1        0.0251
     15 C          -0.2687    0.3209    0.2676 C.ar    1  UNL1        0.0459
     16 C          -0.5379    1.3732    1.1311 C.ar    1  UNL1        0.0396
     17 N          -1.7796    1.7649    1.4794 N.ar    1  UNL1       -0.2542
     18 C          -2.8376    1.1216    0.9803 C.ar    1  UNL1        0.0723
     19 C          -4.0845    1.6381    1.4304 C.ar    1  UNL1       -0.0350
     20 C          -5.3654    1.1691    1.0785 C.ar    1  UNL1       -0.0490
     21 C          -5.2356    0.1076    0.2108 C.ar    1  UNL1        0.0206
     22 C          -6.2750   -0.5929   -0.3354 C.ar    1  UNL1        0.0994
     23 O          -5.7773   -1.5692   -1.1424 O.2     1  UNL1       -0.4698
     24 C          -4.4114   -1.4799   -1.1018 C.ar    1  UNL1        0.1000
     25 C          -4.0130   -0.4563   -0.2773 C.ar    1  UNL1        0.0297
     26 C          -2.6973    0.0066    0.0687 C.ar    1  UNL1        0.0210
     27 C           1.0797    0.0216   -0.0079 C.ar    1  UNL1        0.1471
     28 O           2.2005    0.6461    0.4744 O.2     1  UNL1       -0.4526
     29 H           7.9408    0.6151    0.3142 H       1  UNL1        0.0633
     30 H           6.6377    2.4559    1.8443 H       1  UNL1        0.0807
     31 H           4.1739    2.0286    1.5542 H       1  UNL1        0.1654
     32 H           6.0153   -0.8818   -0.8599 H       1  UNL1        0.0640
     33 H           3.5236   -1.6881   -1.4580 H       1  UNL1        0.0663
     34 H           0.2575    1.9578    1.5886 H       1  UNL1        0.0837
     35 H          -4.0430    2.4856    2.1197 H       1  UNL1        0.0639
     36 H          -6.2855    1.5969    1.4486 H       1  UNL1        0.0625
     37 H          -7.3526   -0.5425   -0.2690 H       1  UNL1        0.1035
     38 H          -3.9252   -2.2187   -1.7150 H       1  UNL1        0.1036
@<TRIPOS>BOND
     1     1     2   ar
     2     2     3   ar
     3     3     4   ar
     4     4     5   ar
     5     4     6    1
     6     6     7   ar
     7     7     8   ar
     8     8     9   ar
     9     9    10   ar
    10    10    11   ar
    11    11    12   ar
    12    12    13   ar
    13    13    14   ar
    14    14    15   ar
    15    15    16   ar
    16    16    17   ar
    17    17    18   ar
    18    18    19   ar
    19    19    20   ar
    20    20    21   ar
    21    21    22   ar
    22    22    23   ar
    23    23    24   ar
    24    24    25   ar
    25    25    26   ar
    26    15    27   ar
    27    27    28   ar
    28     5     1   ar
    29    28     6   ar
    30    27     8   ar
    31    13     9   ar
    32    26    14   ar
    33    26    18   ar
    34    25    21   ar
    35     1    29    1
    36     2    30    1
    37     3    31    1
    38     5    32    1
    39     7    33    1
    40    16    34    1
    41    19    35    1
    42    20    36    1
    43    22    37    1
    44    24    38    1
