@<TRIPOS>MOLECULE
*****
 38 44 0 0 0
SMALL
GASTEIGER

@<TRIPOS>ATOM
      1 C           6.4696   -0.6117   -0.1736 C.ar    1  UNL1       -0.0437
      2 C           5.8269   -1.6478   -0.8122 C.ar    1  UNL1        0.0023
      3 N           4.4790   -1.4084   -0.7488 N.ar    1  UNL1       -0.3583
      4 C           4.2439   -0.2324   -0.0783 C.ar    1  UNL1        0.0821
      5 C           5.4716    0.2820    0.2899 C.ar    1  UNL1       -0.0334
      6 C           2.9198    0.2613    0.1342 C.ar    1  UNL1        0.1524
      7 C           2.5204    1.4209    0.7860 C.ar    1  UNL1       -0.0045
      8 C           1.1300    1.4132    0.7033 C.ar    1  UNL1        0.0496
      9 C           0.1726    2.3371    1.1867 C.ar    1  UNL1        0.1113
     10 N           0.5390    3.4281    1.8417 N.ar    1  UNL1       -0.1900
     11 S          -0.9320    4.1499    2.1785 S.2     1  UNL1        0.1165
     12 N          -1.9744    3.0527    1.4819 N.ar    1  UNL1       -0.1901
     13 C          -1.2437    2.0524    0.9415 C.ar    1  UNL1        0.1104
     14 C          -1.7275    0.8829    0.2342 C.ar    1  UNL1        0.0404
     15 C          -3.1465    0.6170   -0.0003 C.ar    1  UNL1        0.0816
     16 N          -4.1032    1.4610    0.4367 N.ar    1  UNL1       -0.2543
     17 C          -5.4137    1.1992    0.2107 C.ar    1  UNL1        0.0283
     18 C          -5.8808    0.0887   -0.4613 C.ar    1  UNL1       -0.0430
     19 C          -4.9454   -0.8134   -0.9332 C.ar    1  UNL1       -0.0504
     20 C          -3.5769   -0.5531   -0.7049 C.ar    1  UNL1        0.0118
     21 C          -2.5077   -1.3737   -1.1218 C.ar    1  UNL1        0.0297
     22 C          -2.5639   -2.5571   -1.8131 C.ar    1  UNL1        0.1000
     23 O          -1.2988   -3.0312   -2.0175 O.2     1  UNL1       -0.4698
     24 C          -0.4314   -2.1403   -1.4507 C.ar    1  UNL1        0.1001
     25 C          -1.1317   -1.1040   -0.8876 C.ar    1  UNL1        0.0318
     26 C          -0.6487    0.0128   -0.2110 C.ar    1  UNL1        0.0400
     27 C           0.6952    0.3035    0.0336 C.ar    1  UNL1        0.1464
     28 O           1.8048   -0.4158   -0.3222 O.2     1  UNL1       -0.4526
     29 H           7.5405   -0.5086   -0.0534 H       1  UNL1        0.0633
     30 H           6.2099   -2.5316   -1.3046 H       1  UNL1        0.0807
     31 H           3.7550   -2.0005   -1.1339 H       1  UNL1        0.1654
     32 H           5.6396    1.2022    0.8343 H       1  UNL1        0.0640
     33 H           3.1640    2.1555    1.2493 H       1  UNL1        0.0663
     34 H          -6.0998    1.9442    0.6053 H       1  UNL1        0.0830
     35 H          -6.9429   -0.0658   -0.6109 H       1  UNL1        0.0633
     36 H          -5.2715   -1.7001   -1.4671 H       1  UNL1        0.0625
     37 H          -3.3561   -3.1725   -2.2154 H       1  UNL1        0.1036
     38 H           0.6146   -2.3966   -1.5409 H       1  UNL1        0.1036
@<TRIPOS>BOND
     1     1     2   ar
     2     2     3   ar
     3     3     4   ar
     4     4     5   ar
     5     4     6    1
     6     6     7   ar
     7     7     8   ar
     8     8     9   ar
     9     9    10   ar
    10    10    11   ar
    11    11    12   ar
    12    12    13   ar
    13    13    14   ar
    14    14    15   ar
    15    15    16   ar
    16    16    17   ar
    17    17    18   ar
    18    18    19   ar
    19    19    20   ar
    20    20    21   ar
    21    21    22   ar
    22    22    23   ar
    23    23    24   ar
    24    24    25   ar
    25    25    26   ar
    26    26    27   ar
    27    27    28   ar
    28     5     1   ar
    29    28     6   ar
    30    27     8   ar
    31    13     9   ar
    32    26    14   ar
    33    20    15   ar
    34    25    21   ar
    35     1    29    1
    36     2    30    1
    37     3    31    1
    38     5    32    1
    39     7    33    1
    40    17    34    1
    41    18    35    1
    42    19    36    1
    43    22    37    1
    44    24    38    1
