@<TRIPOS>MOLECULE
*****
 48 54 0 0 0
SMALL
GASTEIGER

@<TRIPOS>ATOM
      1 C          -6.3625    2.6819   -0.1172 C.ar    1  UNL1       -0.0438
      2 C          -6.4163    2.1461   -1.3836 C.ar    1  UNL1        0.0022
      3 N          -5.3571    1.2882   -1.5238 N.ar    1  UNL1       -0.3606
      4 C          -4.6274    1.2502   -0.3566 C.ar    1  UNL1        0.0471
      5 C          -5.2316    2.1250    0.5277 C.ar    1  UNL1       -0.0364
      6 C          -3.4228    0.4299   -0.2130 C.ar    1  UNL1        0.0066
      7 C          -2.1958    1.1008   -0.1950 C.ar    1  UNL1       -0.0443
      8 C          -0.9868    0.4098   -0.1043 C.ar    1  UNL1       -0.0161
      9 C           0.2187    1.1333   -0.0972 C.ar    1  UNL1       -0.0462
     10 C           1.4619    0.4937   -0.0143 C.ar    1  UNL1       -0.0167
     11 C           2.6588    1.2216   -0.0083 C.ar    1  UNL1       -0.0457
     12 C           3.8958    0.5459    0.0759 C.ar    1  UNL1       -0.0082
     13 C           5.1885    1.1218    0.0939 C.ar    1  UNL1        0.0071
     14 C           5.5229    2.4531    0.0343 C.ar    1  UNL1        0.0100
     15 N           6.9002    2.5308    0.0831 N.ar    1  UNL1       -0.3659
     16 C           7.4480    1.2682    0.1728 C.ar    1  UNL1        0.0094
     17 C           6.4026    0.3820    0.1809 C.ar    1  UNL1        0.0000
     18 C           6.5086   -0.9972    0.2603 C.ar    1  UNL1       -0.0520
     19 C           5.2234   -1.5940    0.2438 C.ar    1  UNL1       -0.0534
     20 C           3.9663   -0.8788    0.1565 C.ar    1  UNL1       -0.0166
     21 C           2.7464   -1.5715    0.1479 C.ar    1  UNL1       -0.0463
     22 C           1.5021   -0.9091    0.0639 C.ar    1  UNL1       -0.0167
     23 C           0.2885   -1.6243    0.0570 C.ar    1  UNL1       -0.0457
     24 C          -0.9859   -1.0007   -0.0261 C.ar    1  UNL1       -0.0095
     25 C          -2.2437   -1.7084   -0.0312 C.ar    1  UNL1       -0.0095
     26 C          -2.3371   -3.1229    0.0500 C.ar    1  UNL1       -0.0534
     27 C          -3.5583   -3.8005    0.0593 C.ar    1  UNL1       -0.0611
     28 C          -4.7386   -3.0847   -0.0067 C.ar    1  UNL1       -0.0611
     29 C          -4.6904   -1.6956   -0.0909 C.ar    1  UNL1       -0.0534
     30 C          -3.4654   -0.9819   -0.1167 C.ar    1  UNL1       -0.0082
     31 H          -7.0593    3.3986    0.2978 H       1  UNL1        0.0633
     32 H          -7.1118    2.3037   -2.1968 H       1  UNL1        0.0807
     33 H          -5.1372    0.7550   -2.3552 H       1  UNL1        0.1653
     34 H          -4.8941    2.3328    1.5353 H       1  UNL1        0.0639
     35 H          -2.1933    2.1882   -0.2647 H       1  UNL1        0.0630
     36 H           0.1891    2.2205   -0.1579 H       1  UNL1        0.0630
     37 H           2.6430    2.3059   -0.0678 H       1  UNL1        0.0630
     38 H           4.9276    3.3525   -0.0373 H       1  UNL1        0.0813
     39 H           7.4317    3.3911    0.0572 H       1  UNL1        0.1648
     40 H           8.5198    1.1329    0.2215 H       1  UNL1        0.0813
     41 H           7.4278   -1.5603    0.3265 H       1  UNL1        0.0624
     42 H           5.1888   -2.6836    0.3023 H       1  UNL1        0.0624
     43 H           2.7591   -2.6588    0.2083 H       1  UNL1        0.0630
     44 H           0.3541   -2.7070    0.1204 H       1  UNL1        0.0630
     45 H          -1.4446   -3.7386    0.1135 H       1  UNL1        0.0624
     46 H          -3.5785   -4.8849    0.1272 H       1  UNL1        0.0618
     47 H          -5.6960   -3.5977    0.0134 H       1  UNL1        0.0618
     48 H          -5.6396   -1.1633   -0.1207 H       1  UNL1        0.0624
@<TRIPOS>BOND
     1     1     2   ar
     2     2     3   ar
     3     3     4   ar
     4     4     5   ar
     5     4     6    1
     6     6     7   ar
     7     7     8   ar
     8     8     9   ar
     9     9    10   ar
    10    10    11   ar
    11    11    12   ar
    12    12    13   ar
    13    13    14   ar
    14    14    15   ar
    15    15    16   ar
    16    16    17   ar
    17    17    18   ar
    18    18    19   ar
    19    19    20   ar
    20    20    21   ar
    21    21    22   ar
    22    22    23   ar
    23    23    24   ar
    24    24    25   ar
    25    25    26   ar
    26    26    27   ar
    27    27    28   ar
    28    28    29   ar
    29    29    30   ar
    30     5     1   ar
    31    30     6   ar
    32    24     8   ar
    33    30    25   ar
    34    22    10   ar
    35    20    12   ar
    36    17    13   ar
    37     1    31    1
    38     2    32    1
    39     3    33    1
    40     5    34    1
    41     7    35    1
    42     9    36    1
    43    11    37    1
    44    14    38    1
    45    15    39    1
    46    16    40    1
    47    18    41    1
    48    19    42    1
    49    21    43    1
    50    23    44    1
    51    26    45    1
    52    27    46    1
    53    28    47    1
    54    29    48    1
