@<TRIPOS>MOLECULE
*****
 34 38 0 0 0
SMALL
GASTEIGER

@<TRIPOS>ATOM
      1 C          -5.9323    1.5983    0.0660 C.ar    1  UNL1       -0.0438
      2 C          -6.3042    0.2804   -0.0582 C.ar    1  UNL1        0.0022
      3 N          -5.1620   -0.4736   -0.1306 N.ar    1  UNL1       -0.3595
      4 C          -4.0536    0.3385   -0.0549 C.ar    1  UNL1        0.0629
      5 C          -4.5154    1.6363    0.0682 C.ar    1  UNL1       -0.0350
      6 C          -2.7179   -0.1713   -0.1044 C.ar    1  UNL1        0.0654
      7 C          -2.2569   -1.4684   -0.2274 C.ar    1  UNL1       -0.0089
      8 C          -0.8435   -1.4284   -0.2250 C.ar    1  UNL1        0.0897
      9 N           0.0321   -2.4530   -0.3227 N.ar    1  UNL1       -0.2528
     10 C           1.3389   -2.0891   -0.2896 C.ar    1  UNL1        0.0368
     11 C           1.8659   -0.7883   -0.1671 C.ar    1  UNL1        0.0128
     12 C           0.9178    0.2417   -0.0688 C.ar    1  UNL1        0.0277
     13 C           1.3639    1.5550    0.0549 C.ar    1  UNL1        0.0381
     14 N           2.6655    1.9040    0.0866 N.ar    1  UNL1       -0.2543
     15 C           3.5851    0.9313   -0.0062 C.ar    1  UNL1        0.0716
     16 C           4.9208    1.3072    0.0281 C.ar    1  UNL1       -0.0357
     17 C           5.9553    0.3753   -0.0610 C.ar    1  UNL1       -0.0597
     18 C           5.6532   -0.9711   -0.1880 C.ar    1  UNL1       -0.0611
     19 C           4.3188   -1.3763   -0.2250 C.ar    1  UNL1       -0.0519
     20 C           3.2564   -0.4404   -0.1355 C.ar    1  UNL1        0.0096
     21 C          -0.4527   -0.1014   -0.1000 C.ar    1  UNL1        0.0747
     22 N          -1.6088    0.6413   -0.0286 N.ar    1  UNL1       -0.3513
     23 H          -6.6059    2.4417    0.1464 H       1  UNL1        0.0633
     24 H          -7.2789   -0.1867   -0.1014 H       1  UNL1        0.0807
     25 H          -5.1353   -1.4795   -0.2257 H       1  UNL1        0.1654
     26 H          -3.9101    2.5286    0.1520 H       1  UNL1        0.0639
     27 H          -2.8544   -2.3644   -0.3116 H       1  UNL1        0.0661
     28 H           2.0013   -2.9475   -0.3713 H       1  UNL1        0.0836
     29 H           0.6775    2.3918    0.1347 H       1  UNL1        0.0836
     30 H           5.1648    2.3629    0.1276 H       1  UNL1        0.0639
     31 H           6.9898    0.7071   -0.0306 H       1  UNL1        0.0618
     32 H           6.4505   -1.7068   -0.2583 H       1  UNL1        0.0618
     33 H           4.1223   -2.4403   -0.3254 H       1  UNL1        0.0624
     34 H          -1.6481    1.6453    0.0663 H       1  UNL1        0.1660
@<TRIPOS>BOND
     1     1     2   ar
     2     2     3   ar
     3     3     4   ar
     4     4     5   ar
     5     4     6    1
     6     6     7   ar
     7     7     8   ar
     8     8     9   ar
     9     9    10   ar
    10    10    11   ar
    11    11    12   ar
    12    12    13   ar
    13    13    14   ar
    14    14    15   ar
    15    15    16   ar
    16    16    17   ar
    17    17    18   ar
    18    18    19   ar
    19    19    20   ar
    20    12    21   ar
    21    21    22   ar
    22     5     1   ar
    23    22     6   ar
    24    21     8   ar
    25    20    11   ar
    26    20    15   ar
    27     1    23    1
    28     2    24    1
    29     3    25    1
    30     5    26    1
    31     7    27    1
    32    10    28    1
    33    13    29    1
    34    16    30    1
    35    17    31    1
    36    18    32    1
    37    19    33    1
    38    22    34    1
