@<TRIPOS>MOLECULE
*****
 45 52 0 0 0
SMALL
GASTEIGER

@<TRIPOS>ATOM
      1 C           7.0355    1.1788    0.2168 C.ar    1  UNL1       -0.0438
      2 C           7.0570   -0.1395    0.6067 C.ar    1  UNL1        0.0022
      3 N           5.7661   -0.5980    0.6112 N.ar    1  UNL1       -0.3606
      4 C           4.9058    0.3989    0.2040 C.ar    1  UNL1        0.0472
      5 C           5.6831    1.5220   -0.0222 C.ar    1  UNL1       -0.0364
      6 C           3.4708    0.2230    0.1251 C.ar    1  UNL1        0.0110
      7 C           2.5204    1.1556    0.5943 C.ar    1  UNL1       -0.0259
      8 C           1.1049    1.0162    0.5274 C.ar    1  UNL1        0.0729
      9 N           0.4071    2.0608    0.9599 N.ar    1  UNL1       -0.2543
     10 C          -0.9531    2.0390    0.8798 C.ar    1  UNL1        0.0366
     11 C          -1.7713    0.9783    0.4708 C.ar    1  UNL1        0.0113
     12 C          -3.2687    1.0562    0.4328 C.ar    1  UNL1        0.0201
     13 C          -4.0667    2.2502    0.6663 C.ar    1  UNL1        0.1082
     14 N          -3.6041    3.4843    0.9409 N.ar    1  UNL1       -0.1901
     15 S          -4.9003    4.4935    1.1159 S.2     1  UNL1        0.1165
     16 N          -6.1435    3.4373    0.8493 N.ar    1  UNL1       -0.1908
     17 C          -5.5863    2.2407    0.6079 C.ar    1  UNL1        0.1005
     18 C          -6.3188    1.0722    0.3235 C.ar    1  UNL1       -0.0329
     19 C          -5.5587   -0.0743    0.0993 C.ar    1  UNL1       -0.0512
     20 C          -4.1253   -0.0772    0.1485 C.ar    1  UNL1       -0.0059
     21 C          -3.3429   -1.2327   -0.0357 C.ar    1  UNL1        0.0078
     22 C          -3.8207   -2.5141   -0.1945 C.ar    1  UNL1        0.0100
     23 N          -2.7370   -3.3569   -0.2083 N.ar    1  UNL1       -0.3659
     24 C          -1.5818   -2.6274   -0.0499 C.ar    1  UNL1        0.0100
     25 C          -1.9127   -1.2913   -0.0425 C.ar    1  UNL1        0.0084
     26 C          -1.0219   -0.1913    0.1204 C.ar    1  UNL1        0.0032
     27 C           0.4355   -0.1391    0.0211 C.ar    1  UNL1        0.0195
     28 C           1.4067   -1.0169   -0.5552 C.ar    1  UNL1        0.0302
     29 C           1.2092   -2.0724   -1.4107 C.ar    1  UNL1        0.1001
     30 O           2.4052   -2.6136   -1.7872 O.2     1  UNL1       -0.4698
     31 C           3.3894   -1.8497   -1.2333 C.ar    1  UNL1        0.1000
     32 C           2.8271   -0.8404   -0.4947 C.ar    1  UNL1        0.0297
     33 H           7.8970    1.8270    0.1220 H       1  UNL1        0.0633
     34 H           7.8758   -0.7867    0.8910 H       1  UNL1        0.0807
     35 H           5.4807   -1.5274    0.8899 H       1  UNL1        0.1653
     36 H           5.3134    2.4894   -0.3389 H       1  UNL1        0.0639
     37 H           2.8948    2.0775    1.0451 H       1  UNL1        0.0646
     38 H          -1.3722    2.9803    1.2214 H       1  UNL1        0.0836
     39 H          -7.4010    1.0712    0.2838 H       1  UNL1        0.0640
     40 H          -6.0933   -0.9969   -0.1216 H       1  UNL1        0.0624
     41 H          -4.8200   -2.9231   -0.2515 H       1  UNL1        0.0813
     42 H          -2.7845   -4.3671   -0.2579 H       1  UNL1        0.1648
     43 H          -0.6468   -3.1526    0.0764 H       1  UNL1        0.0813
     44 H           0.3485   -2.5354   -1.8696 H       1  UNL1        0.1036
     45 H           4.3978   -2.1285   -1.5052 H       1  UNL1        0.1036
@<TRIPOS>BOND
     1     1     2   ar
     2     2     3   ar
     3     3     4   ar
     4     4     5   ar
     5     4     6    1
     6     6     7   ar
     7     7     8   ar
     8     8     9   ar
     9     9    10   ar
    10    10    11   ar
    11    11    12   ar
    12    12    13   ar
    13    13    14   ar
    14    14    15   ar
    15    15    16   ar
    16    16    17   ar
    17    17    18   ar
    18    18    19   ar
    19    19    20   ar
    20    20    21   ar
    21    21    22   ar
    22    22    23   ar
    23    23    24   ar
    24    24    25   ar
    25    25    26   ar
    26    26    27   ar
    27    27    28   ar
    28    28    29   ar
    29    29    30   ar
    30    30    31   ar
    31    31    32   ar
    32     5     1   ar
    33    32     6   ar
    34    27     8   ar
    35    32    28   ar
    36    26    11   ar
    37    20    12   ar
    38    25    21   ar
    39    17    13   ar
    40     1    33    1
    41     2    34    1
    42     3    35    1
    43     5    36    1
    44     7    37    1
    45    10    38    1
    46    18    39    1
    47    19    40    1
    48    22    41    1
    49    23    42    1
    50    24    43    1
    51    29    44    1
    52    31    45    1
