@<TRIPOS>MOLECULE
*****
 49 56 0 0 0
SMALL
GASTEIGER

@<TRIPOS>ATOM
      1 SI          1.5676   -1.2392   -4.0965 Si      1  UNL1        0.0000
      2 C           2.8996   -0.8169   -2.8646 C.2     1  UNL1        0.0000
      3 C           2.3792   -0.4563   -1.6723 C.ar    1  UNL1        0.0000
      4 C           3.1294    0.0721   -0.5358 C.ar    1  UNL1        0.0000
      5 C           2.3963    0.6364    0.4505 C.ar    1  UNL1        0.0000
      6 C           0.9143    0.6664    0.5082 C.ar    1  UNL1        0.0000
      7 C           0.1888   -0.0831   -0.3741 C.ar    1  UNL1        0.0000
      8 C          -1.2502   -0.3397   -0.0720 C.ar    1  UNL1        0.0000
      9 C          -1.9193   -1.5199   -0.4679 C.ar    1  UNL1        0.0000
     10 C          -1.4114   -2.6815   -1.0010 C.ar    1  UNL1        0.0000
     11 O          -2.4114   -3.5865   -1.2217 O.2     1  UNL1        0.0000
     12 C          -3.5710   -3.0277   -0.7694 C.ar    1  UNL1        0.0000
     13 C          -3.3069   -1.7835   -0.2629 C.ar    1  UNL1        0.0000
     14 C          -4.1753   -0.9234    0.3807 C.ar    1  UNL1        0.0000
     15 C          -5.5983   -1.1289    0.6255 C.2     1  UNL1        0.0000
     16 C          -6.1353   -0.1521    1.3735 C.2     1  UNL1        0.0000
     17 SI         -4.8859    1.1498    1.8664 Si      1  UNL1        0.0000
     18 C          -3.5063    0.2331    0.9187 C.ar    1  UNL1        0.0000
     19 C          -2.0897    0.5096    0.7523 C.ar    1  UNL1        0.0000
     20 C          -1.3167    1.5495    1.5021 C.ar    1  UNL1        0.0000
     21 C          -1.7960    2.5477    2.2755 C.2     1  UNL1        0.0000
     22 SI         -0.4460    3.5003    3.1473 Si      1  UNL1        0.0000
     23 C           0.7739    2.4209    2.2686 C.2     1  UNL1        0.0000
     24 C           0.1774    1.5069    1.4702 C.ar    1  UNL1        0.0000
     25 C           0.8955   -0.5065   -1.6035 C.ar    1  UNL1        0.0000
     26 C           0.3149   -0.8224   -2.7822 C.2     1  UNL1        0.0000
     27 C           4.5551    0.0624   -0.3619 C.ar    1  UNL1        0.0000
     28 C           5.4958   -0.8879   -0.7531 C.ar    1  UNL1        0.0000
     29 C           6.7746   -0.4441   -0.3422 C.ar    1  UNL1        0.0000
     30 C           6.5668    0.7524    0.2914 C.ar    1  UNL1        0.0000
     31 O           5.2493    1.0633    0.2950 O.2     1  UNL1        0.0000
     32 H           1.5335   -0.2986   -5.2416 H       1  UNL1        0.0000
     33 H           1.5651   -2.6801   -4.4453 H       1  UNL1        0.0000
     34 H           3.9344   -0.7990   -3.1651 H       1  UNL1        0.0000
     35 H           2.9099    1.0454    1.3163 H       1  UNL1        0.0000
     36 H          -0.4241   -3.0302   -1.2680 H       1  UNL1        0.0000
     37 H          -4.4501   -3.6506   -0.8514 H       1  UNL1        0.0000
     38 H          -6.1437   -1.9791    0.2408 H       1  UNL1        0.0000
     39 H          -7.1654   -0.0817    1.6875 H       1  UNL1        0.0000
     40 H          -5.2014    2.4730    1.2720 H       1  UNL1        0.0000
     41 H          -4.6621    1.1670    3.3340 H       1  UNL1        0.0000
     42 H          -2.8019    2.8507    2.4811 H       1  UNL1        0.0000
     43 H          -0.3891    4.9161    2.7119 H       1  UNL1        0.0000
     44 H          -0.4646    3.2812    4.6133 H       1  UNL1        0.0000
     45 H           1.8265    2.6284    2.3677 H       1  UNL1        0.0000
     46 H          -0.7376   -0.8327   -3.0168 H       1  UNL1        0.0000
     47 H           5.2704   -1.8103   -1.2707 H       1  UNL1        0.0000
     48 H           7.7246   -0.9389   -0.4844 H       1  UNL1        0.0000
     49 H           7.2169    1.4684    0.7742 H       1  UNL1        0.0000
@<TRIPOS>BOND
     1     1     2    1
     2     2     3    2
     3     3     4   ar
     4     4     5   ar
     5     5     6   ar
     6     6     7   ar
     7     7     8   ar
     8     8     9   ar
     9     9    10   ar
    10    10    11   ar
    11    11    12   ar
    12    12    13   ar
    13    13    14   ar
    14    14    15    1
    15    15    16    2
    16    16    17    1
    17    17    18    1
    18    18    19   ar
    19    19    20   ar
    20    20    21    2
    21    21    22    1
    22    22    23    1
    23    23    24    2
    24     7    25   ar
    25    25    26    2
    26     4    27    1
    27    27    28   ar
    28    28    29   ar
    29    29    30   ar
    30    30    31   ar
    31    26     1    1
    32    31    27   ar
    33    25     3   ar
    34    24     6   ar
    35    19     8   ar
    36    24    20   ar
    37    13     9   ar
    38    18    14   ar
    39     1    32    1
    40     1    33    1
    41     2    34    1
    42     5    35    1
    43    10    36    1
    44    12    37    1
    45    15    38    1
    46    16    39    1
    47    17    40    1
    48    17    41    1
    49    21    42    1
    50    22    43    1
    51    22    44    1
    52    23    45    1
    53    26    46    1
    54    28    47    1
    55    29    48    1
    56    30    49    1
