@<TRIPOS>MOLECULE
*****
 36 41 0 0 0
SMALL
GASTEIGER

@<TRIPOS>ATOM
      1 C           6.6656    0.6633    0.0272 C.ar    1  UNL1       -0.0438
      2 C           6.5692   -0.6785    0.3117 C.ar    1  UNL1        0.0022
      3 N           5.2404   -1.0027    0.3473 N.ar    1  UNL1       -0.3595
      4 C           4.4647    0.1086    0.0900 C.ar    1  UNL1        0.0650
      5 C           5.3450    1.1594   -0.1124 C.ar    1  UNL1       -0.0349
      6 C           3.0088    0.0234    0.0713 C.ar    1  UNL1        0.0891
      7 C           2.1926    1.1082   -0.1814 C.ar    1  UNL1       -0.0083
      8 C           0.8193    0.9472   -0.1818 C.ar    1  UNL1        0.0752
      9 N           0.0785    2.0291   -0.4319 N.ar    1  UNL1       -0.2542
     10 C          -1.2706    1.9123   -0.4411 C.ar    1  UNL1        0.0367
     11 C          -2.0068    0.7473   -0.2107 C.ar    1  UNL1        0.0122
     12 C          -3.4652    0.7300   -0.2439 C.ar    1  UNL1        0.0116
     13 C          -4.2819    1.8478   -0.5036 C.ar    1  UNL1        0.0359
     14 N          -5.6402    1.8632   -0.5414 N.ar    1  UNL1       -0.2626
     15 C          -6.2759    0.7020   -0.3092 C.ar    1  UNL1        0.0282
     16 C          -5.6142   -0.4752   -0.0407 C.ar    1  UNL1       -0.0337
     17 C          -4.2055   -0.4543   -0.0095 C.ar    1  UNL1        0.0138
     18 C          -3.4560   -1.6370    0.2624 C.ar    1  UNL1        0.1083
     19 N          -3.9736   -2.8543    0.5095 N.ar    1  UNL1       -0.1901
     20 S          -2.7034   -3.8788    0.7608 S.2     1  UNL1        0.1165
     21 N          -1.4416   -2.8311    0.5687 N.ar    1  UNL1       -0.1901
     22 C          -1.9495   -1.6156    0.2960 C.ar    1  UNL1        0.1089
     23 C          -1.1986   -0.4032    0.0558 C.ar    1  UNL1        0.0230
     24 C           0.2494   -0.3075    0.0721 C.ar    1  UNL1        0.0284
     25 C           1.1734   -1.3411    0.3165 C.ar    1  UNL1        0.0381
     26 N           2.5212   -1.2067    0.3219 N.ar    1  UNL1       -0.2528
     27 H           7.5850    1.2260   -0.0698 H       1  UNL1        0.0633
     28 H           7.3272   -1.4288    0.4913 H       1  UNL1        0.0807
     29 H           4.8467   -1.9171    0.5328 H       1  UNL1        0.1654
     30 H           5.0735    2.1824   -0.3380 H       1  UNL1        0.0639
     31 H           2.6120    2.0879   -0.3802 H       1  UNL1        0.0661
     32 H          -1.7500    2.8638   -0.6567 H       1  UNL1        0.0836
     33 H          -3.8634    2.8307   -0.7032 H       1  UNL1        0.0836
     34 H          -7.3605    0.7449   -0.3459 H       1  UNL1        0.0830
     35 H          -6.1745   -1.3873    0.1401 H       1  UNL1        0.0639
     36 H           0.8591   -2.3581    0.5260 H       1  UNL1        0.0836
@<TRIPOS>BOND
     1     1     2   ar
     2     2     3   ar
     3     3     4   ar
     4     4     5   ar
     5     4     6    1
     6     6     7   ar
     7     7     8   ar
     8     8     9   ar
     9     9    10   ar
    10    10    11   ar
    11    11    12   ar
    12    12    13   ar
    13    13    14   ar
    14    14    15   ar
    15    15    16   ar
    16    16    17   ar
    17    17    18   ar
    18    18    19   ar
    19    19    20   ar
    20    20    21   ar
    21    21    22   ar
    22    22    23   ar
    23    23    24   ar
    24    24    25   ar
    25    25    26   ar
    26     5     1   ar
    27    26     6   ar
    28    24     8   ar
    29    23    11   ar
    30    17    12   ar
    31    22    18   ar
    32     1    27    1
    33     2    28    1
    34     3    29    1
    35     5    30    1
    36     7    31    1
    37    10    32    1
    38    13    33    1
    39    15    34    1
    40    16    35    1
    41    25    36    1
