@<TRIPOS>MOLECULE
*****
 32 36 0 0 0
SMALL
GASTEIGER

@<TRIPOS>ATOM
      1 C           5.1498   -1.0161    0.2812 C.ar    1  UNL1       -0.0438
      2 C           5.1427    0.1399   -0.4633 C.ar    1  UNL1        0.0022
      3 N           3.8388    0.5279   -0.6256 N.ar    1  UNL1       -0.3606
      4 C           2.9981   -0.3473    0.0273 C.ar    1  UNL1        0.0472
      5 C           3.8019   -1.3312    0.5771 C.ar    1  UNL1       -0.0364
      6 C           1.5559   -0.2149    0.0227 C.ar    1  UNL1        0.0110
      7 C           0.6608   -1.2729   -0.2836 C.ar    1  UNL1       -0.0259
      8 C          -0.7586   -1.1848   -0.3126 C.ar    1  UNL1        0.0743
      9 N          -1.4399   -2.2910   -0.6357 N.ar    1  UNL1       -0.2542
     10 C          -2.7969   -2.2833   -0.6846 C.ar    1  UNL1        0.0374
     11 C          -3.5243   -1.1236   -0.4007 C.ar    1  UNL1        0.0184
     12 C          -4.9126   -0.8149   -0.3700 C.ar    1  UNL1       -0.0352
     13 C          -5.0379    0.5081   -0.0189 C.ar    1  UNL1        0.0028
     14 N          -3.7780    1.0138    0.1648 N.ar    1  UNL1       -0.3601
     15 C          -2.8305    0.0418   -0.0615 C.ar    1  UNL1        0.0579
     16 C          -1.4347    0.0395   -0.0103 C.ar    1  UNL1        0.0350
     17 C          -0.5616    1.0860    0.3085 C.ar    1  UNL1        0.0316
     18 C          -0.8305    2.3816    0.6682 C.ar    1  UNL1        0.1001
     19 O           0.3370    3.0486    0.9193 O.2     1  UNL1       -0.4698
     20 C           1.3641    2.1707    0.7220 C.ar    1  UNL1        0.1000
     21 C           0.8643    0.9582    0.3230 C.ar    1  UNL1        0.0297
     22 H           6.0278   -1.5777    0.5733 H       1  UNL1        0.0633
     23 H           5.9496    0.7126   -0.9003 H       1  UNL1        0.0807
     24 H           3.5335    1.3292   -1.1619 H       1  UNL1        0.1653
     25 H           3.4518   -2.1849    1.1441 H       1  UNL1        0.0639
     26 H           1.0902   -2.2454   -0.5332 H       1  UNL1        0.0646
     27 H          -3.2698   -3.2212   -0.9541 H       1  UNL1        0.0836
     28 H          -5.7303   -1.4916   -0.5823 H       1  UNL1        0.0639
     29 H          -5.9115    1.1321    0.1164 H       1  UNL1        0.0807
     30 H          -3.5826    1.9676    0.4291 H       1  UNL1        0.1654
     31 H          -1.7184    2.9782    0.8059 H       1  UNL1        0.1036
     32 H           2.3519    2.5647    0.9157 H       1  UNL1        0.1036
@<TRIPOS>BOND
     1     1     2   ar
     2     2     3   ar
     3     3     4   ar
     4     4     5   ar
     5     4     6    1
     6     6     7   ar
     7     7     8   ar
     8     8     9   ar
     9     9    10   ar
    10    10    11   ar
    11    11    12   ar
    12    12    13   ar
    13    13    14   ar
    14    14    15   ar
    15    15    16   ar
    16    16    17   ar
    17    17    18   ar
    18    18    19   ar
    19    19    20   ar
    20    20    21   ar
    21     5     1   ar
    22    21     6   ar
    23    16     8   ar
    24    21    17   ar
    25    15    11   ar
    26     1    22    1
    27     2    23    1
    28     3    24    1
    29     5    25    1
    30     7    26    1
    31    10    27    1
    32    12    28    1
    33    13    29    1
    34    14    30    1
    35    18    31    1
    36    20    32    1
