@<TRIPOS>MOLECULE
*****
 38 44 0 0 0
SMALL
GASTEIGER

@<TRIPOS>ATOM
      1 C           5.8328   -2.2184    0.3488 C.ar    1  UNL1       -0.0438
      2 C           5.9795   -1.4559   -0.7865 C.ar    1  UNL1        0.0022
      3 N           4.8156   -0.7596   -0.9796 N.ar    1  UNL1       -0.3606
      4 C           3.9241   -1.0404    0.0328 C.ar    1  UNL1        0.0472
      5 C           4.5351   -1.9687    0.8569 C.ar    1  UNL1       -0.0364
      6 C           2.5906   -0.4686    0.0890 C.ar    1  UNL1        0.0100
      7 C           1.4383   -1.2734    0.0544 C.ar    1  UNL1       -0.0090
      8 C           0.1703   -0.6670    0.0810 C.ar    1  UNL1        0.1377
      9 O          -1.0116   -1.3535    0.0399 O.2     1  UNL1       -0.4525
     10 C          -2.0327   -0.4333    0.0805 C.ar    1  UNL1        0.1642
     11 C          -1.4782    0.8360    0.1459 C.ar    1  UNL1        0.0588
     12 C          -2.3838    1.9406    0.1922 C.ar    1  UNL1        0.1119
     13 N          -2.0043    3.2042    0.2493 N.ar    1  UNL1       -0.1900
     14 S          -3.4459    4.0473    0.2827 S.2     1  UNL1        0.1165
     15 N          -4.5357    2.7836    0.2194 N.ar    1  UNL1       -0.1901
     16 C          -3.8161    1.6422    0.1703 C.ar    1  UNL1        0.1098
     17 C          -4.3451    0.3153    0.1048 C.ar    1  UNL1        0.0322
     18 C          -5.7116   -0.0198    0.0818 C.ar    1  UNL1       -0.0489
     19 C          -6.0779   -1.3609    0.0152 C.ar    1  UNL1       -0.0429
     20 C          -5.0756   -2.3210   -0.0267 C.ar    1  UNL1        0.0284
     21 N          -3.7524   -2.0406   -0.0069 N.ar    1  UNL1       -0.2512
     22 C          -3.4079   -0.7335    0.0587 C.ar    1  UNL1        0.1159
     23 C          -0.0964    0.6923    0.1480 C.ar    1  UNL1        0.0384
     24 C           1.0526    1.5515    0.2064 C.ar    1  UNL1        0.0012
     25 C           1.0766    2.9119    0.2967 C.ar    1  UNL1       -0.0159
     26 S           2.7050    3.4664    0.3694 S.2     1  UNL1       -0.1038
     27 C           3.3289    1.8645    0.2867 C.ar    1  UNL1       -0.0160
     28 C           2.3343    0.9133    0.1754 C.ar    1  UNL1       -0.0010
     29 H           6.5753   -2.8878    0.7636 H       1  UNL1        0.0633
     30 H           6.8059   -1.3555   -1.4773 H       1  UNL1        0.0807
     31 H           4.6305   -0.1331   -1.7521 H       1  UNL1        0.1653
     32 H           4.0933   -2.4128    1.7401 H       1  UNL1        0.0639
     33 H           1.5154   -2.3552   -0.0075 H       1  UNL1        0.0661
     34 H          -6.4727    0.7558    0.1156 H       1  UNL1        0.0625
     35 H          -7.1223   -1.6538   -0.0039 H       1  UNL1        0.0633
     36 H          -5.3198   -3.3790   -0.0791 H       1  UNL1        0.0830
     37 H           0.2856    3.6406    0.3361 H       1  UNL1        0.0700
     38 H           4.4004    1.7263    0.3361 H       1  UNL1        0.0700
@<TRIPOS>BOND
     1     1     2   ar
     2     2     3   ar
     3     3     4   ar
     4     4     5   ar
     5     4     6    1
     6     6     7   ar
     7     7     8   ar
     8     8     9   ar
     9     9    10   ar
    10    10    11   ar
    11    11    12   ar
    12    12    13   ar
    13    13    14   ar
    14    14    15   ar
    15    15    16   ar
    16    16    17   ar
    17    17    18   ar
    18    18    19   ar
    19    19    20   ar
    20    20    21   ar
    21    21    22   ar
    22    11    23   ar
    23    23    24   ar
    24    24    25   ar
    25    25    26   ar
    26    26    27   ar
    27    27    28   ar
    28     5     1   ar
    29    28     6   ar
    30    23     8   ar
    31    28    24   ar
    32    22    10   ar
    33    16    12   ar
    34    22    17   ar
    35     1    29    1
    36     2    30    1
    37     3    31    1
    38     5    32    1
    39     7    33    1
    40    18    34    1
    41    19    35    1
    42    20    36    1
    43    25    37    1
    44    27    38    1
