@<TRIPOS>MOLECULE
*****
 36 42 0 0 0
SMALL
GASTEIGER

@<TRIPOS>ATOM
      1 C           6.5558   -0.2463   -0.5874 C.ar    1  UNL1       -0.0438
      2 C           6.0819    0.9509   -1.0588 C.ar    1  UNL1        0.0022
      3 N           4.7197    0.9461   -0.9190 N.ar    1  UNL1       -0.3606
      4 C           4.2821   -0.2426   -0.3591 C.ar    1  UNL1        0.0487
      5 C           5.4341   -0.9912   -0.1508 C.ar    1  UNL1       -0.0364
      6 C           2.8616   -0.5329   -0.0894 C.ar    1  UNL1        0.0299
      7 C           1.8323    0.4063   -0.3924 C.ar    1  UNL1       -0.0074
      8 C           0.5041    0.0727   -0.1133 C.ar    1  UNL1        0.1396
      9 O          -0.6052    0.8454   -0.3360 O.2     1  UNL1       -0.4535
     10 C          -1.6690    0.0842    0.1016 C.ar    1  UNL1        0.1516
     11 C          -1.2567   -1.1305    0.5864 C.ar    1  UNL1        0.0684
     12 S          -2.6025   -2.0888    1.1379 S.2     1  UNL1       -0.0842
     13 C          -3.7316   -0.8296    0.7064 C.ar    1  UNL1        0.0242
     14 C          -5.1469   -0.8058    0.8392 C.ar    1  UNL1       -0.0467
     15 C          -5.9052    0.3167    0.4293 C.ar    1  UNL1       -0.0524
     16 C          -5.1400    1.3595   -0.1001 C.ar    1  UNL1       -0.0101
     17 C          -5.7062    2.5303   -0.5504 C.ar    1  UNL1       -0.0166
     18 S          -4.5146    3.6327   -1.1488 S.2     1  UNL1       -0.1039
     19 C          -3.2191    2.5451   -0.8084 C.ar    1  UNL1       -0.0159
     20 C          -3.7339    1.4063   -0.2627 C.ar    1  UNL1        0.0009
     21 C          -3.0444    0.2415    0.1725 C.ar    1  UNL1        0.0403
     22 C           0.1239   -1.1093    0.4375 C.ar    1  UNL1        0.0627
     23 C           1.0462   -2.1105    0.7781 C.ar    1  UNL1        0.1123
     24 N           0.7157   -3.2716    1.3148 N.ar    1  UNL1       -0.1900
     25 S           2.2046   -4.0171    1.4873 S.2     1  UNL1        0.1165
     26 N           3.2147   -2.8358    0.8730 N.ar    1  UNL1       -0.1901
     27 C           2.4498   -1.7874    0.4960 C.ar    1  UNL1        0.1098
     28 H           7.5925   -0.5557   -0.5581 H       1  UNL1        0.0633
     29 H           6.5934    1.8053   -1.4812 H       1  UNL1        0.0807
     30 H           4.1271    1.7159   -1.1931 H       1  UNL1        0.1653
     31 H           5.4816   -1.9848    0.2754 H       1  UNL1        0.0639
     32 H           2.0434    1.3731   -0.8328 H       1  UNL1        0.0662
     33 H          -5.6594   -1.6669    1.2643 H       1  UNL1        0.0629
     34 H          -6.9841    0.3404    0.5282 H       1  UNL1        0.0624
     35 H          -6.7487    2.8172   -0.5693 H       1  UNL1        0.0699
     36 H          -2.1967    2.8171   -1.0297 H       1  UNL1        0.0700
@<TRIPOS>BOND
     1     1     2   ar
     2     2     3   ar
     3     3     4   ar
     4     4     5   ar
     5     4     6    1
     6     6     7   ar
     7     7     8   ar
     8     8     9   ar
     9     9    10   ar
    10    10    11   ar
    11    11    12   ar
    12    12    13   ar
    13    13    14   ar
    14    14    15   ar
    15    15    16   ar
    16    16    17   ar
    17    17    18   ar
    18    18    19   ar
    19    19    20   ar
    20    20    21   ar
    21    11    22   ar
    22    22    23   ar
    23    23    24   ar
    24    24    25   ar
    25    25    26   ar
    26    26    27   ar
    27     5     1   ar
    28    27     6   ar
    29    22     8   ar
    30    27    23   ar
    31    21    10   ar
    32    21    13   ar
    33    20    16   ar
    34     1    28    1
    35     2    29    1
    36     3    30    1
    37     5    31    1
    38     7    32    1
    39    14    33    1
    40    15    34    1
    41    17    35    1
    42    19    36    1
