@<TRIPOS>MOLECULE
*****
 37 41 0 0 0
SMALL
GASTEIGER

@<TRIPOS>ATOM
      1 C           6.5386   -0.2825    0.7819 C.ar    1  UNL1       -0.0438
      2 C           5.8373   -1.4429    1.0125 C.ar    1  UNL1        0.0022
      3 N           4.5481   -1.2472    0.5880 N.ar    1  UNL1       -0.3595
      4 C           4.4028    0.0290    0.0958 C.ar    1  UNL1        0.0629
      5 C           5.6383    0.6412    0.1971 C.ar    1  UNL1       -0.0350
      6 C           3.1785    0.5501   -0.4280 C.ar    1  UNL1        0.0633
      7 C           2.9807    1.5934   -1.3106 C.ar    1  UNL1       -0.0344
      8 C           1.5865    1.7254   -1.5227 C.ar    1  UNL1       -0.0358
      9 C           0.9473    0.7847   -0.7376 C.ar    1  UNL1        0.0475
     10 N           1.9350    0.0692   -0.0959 N.ar    1  UNL1       -0.3530
     11 C          -0.4630    0.4849   -0.5910 C.ar    1  UNL1        0.0065
     12 C          -1.3003    0.1865   -1.6896 C.ar    1  UNL1       -0.0514
     13 C          -2.6867   -0.1413   -1.5671 C.ar    1  UNL1       -0.0522
     14 C          -3.3781   -0.1983   -0.3327 C.ar    1  UNL1       -0.0016
     15 C          -4.7780   -0.5574   -0.2127 C.ar    1  UNL1        0.0394
     16 C          -5.3753   -1.6028    0.4674 C.ar    1  UNL1        0.0425
     17 N          -6.7540   -1.6658    0.3938 N.ar    1  UNL1       -0.2551
     18 C          -7.1888   -0.6723   -0.3491 C.ar    1  UNL1        0.0652
     19 S          -5.9930    0.3751   -0.9908 S.2     1  UNL1       -0.0754
     20 C          -2.5546    0.1184    0.7652 C.ar    1  UNL1       -0.0020
     21 C          -2.9822    0.1861    2.0721 C.ar    1  UNL1       -0.0160
     22 S          -1.7144    0.6358    3.1388 S.2     1  UNL1       -0.1038
     23 C          -0.5843    0.7744    1.8546 C.ar    1  UNL1       -0.0160
     24 C          -1.1454    0.4520    0.6396 C.ar    1  UNL1       -0.0012
     25 H           7.5849   -0.1177    1.0042 H       1  UNL1        0.0633
     26 H           6.1443   -2.3910    1.4331 H       1  UNL1        0.0807
     27 H           3.8254   -1.9520    0.6060 H       1  UNL1        0.1654
     28 H           5.8675    1.6535   -0.1099 H       1  UNL1        0.0639
     29 H           3.7593    2.1907   -1.7673 H       1  UNL1        0.0639
     30 H           1.0995    2.4456   -2.1679 H       1  UNL1        0.0639
     31 H           1.7561   -0.6857    0.5496 H       1  UNL1        0.1659
     32 H          -0.8684    0.1908   -2.6916 H       1  UNL1        0.0624
     33 H          -3.2300   -0.3691   -2.4855 H       1  UNL1        0.0624
     34 H          -4.8463   -2.3562    1.0393 H       1  UNL1        0.0841
     35 H          -8.2411   -0.5187   -0.5496 H       1  UNL1        0.0907
     36 H          -3.9689    0.0130    2.4797 H       1  UNL1        0.0700
     37 H           0.4224    1.1012    2.0764 H       1  UNL1        0.0700
@<TRIPOS>BOND
     1     1     2   ar
     2     2     3   ar
     3     3     4   ar
     4     4     5   ar
     5     4     6    1
     6     6     7   ar
     7     7     8   ar
     8     8     9   ar
     9     9    10   ar
    10     9    11    1
    11    11    12   ar
    12    12    13   ar
    13    13    14   ar
    14    14    15    1
    15    15    16   ar
    16    16    17   ar
    17    17    18   ar
    18    18    19   ar
    19    14    20   ar
    20    20    21   ar
    21    21    22   ar
    22    22    23   ar
    23    23    24   ar
    24     5     1   ar
    25    10     6   ar
    26    24    11   ar
    27    19    15   ar
    28    24    20   ar
    29     1    25    1
    30     2    26    1
    31     3    27    1
    32     5    28    1
    33     7    29    1
    34     8    30    1
    35    10    31    1
    36    12    32    1
    37    13    33    1
    38    16    34    1
    39    18    35    1
    40    21    36    1
    41    23    37    1
