@<TRIPOS>MOLECULE
*****
 45 50 0 0 0
SMALL
GASTEIGER

@<TRIPOS>ATOM
      1 C           7.5112   -0.4753   -1.1911 C.ar    1  UNL1       -0.0438
      2 C           7.4904   -0.4037    0.1823 C.ar    1  UNL1        0.0022
      3 N           6.1818   -0.3259    0.5799 N.ar    1  UNL1       -0.3606
      4 C           5.3523   -0.3207   -0.5202 C.ar    1  UNL1        0.0471
      5 C           6.1667   -0.4376   -1.6329 C.ar    1  UNL1       -0.0364
      6 C           3.9071   -0.2715   -0.4169 C.ar    1  UNL1        0.0065
      7 C           3.0643   -1.2534   -0.9842 C.ar    1  UNL1       -0.0514
      8 C           1.6383   -1.2390   -0.8718 C.ar    1  UNL1       -0.0528
      9 C           0.9023   -0.2372   -0.1902 C.ar    1  UNL1       -0.0090
     10 C          -0.5417   -0.2424   -0.0880 C.ar    1  UNL1       -0.0090
     11 C          -1.2555   -1.0529    0.8282 C.ar    1  UNL1       -0.0528
     12 C          -2.6819   -1.0720    0.9427 C.ar    1  UNL1       -0.0528
     13 C          -3.5581   -0.2886    0.1488 C.ar    1  UNL1       -0.0082
     14 C          -5.0069   -0.3309    0.2761 C.ar    1  UNL1        0.0008
     15 C          -5.8200   -0.8849   -0.7193 C.ar    1  UNL1       -0.0511
     16 C          -7.2034   -0.9167   -0.5559 C.ar    1  UNL1       -0.0430
     17 C          -7.7390   -0.3939    0.6088 C.ar    1  UNL1        0.0276
     18 N          -6.9962    0.1454    1.5976 N.ar    1  UNL1       -0.2627
     19 C          -5.6544    0.1629    1.4079 C.ar    1  UNL1        0.0353
     20 C          -2.8514    0.5181   -0.7645 C.ar    1  UNL1       -0.0025
     21 C          -3.4464    1.3991   -1.6392 C.ar    1  UNL1       -0.0160
     22 S          -2.2904    2.2155   -2.6112 S.2     1  UNL1       -0.1038
     23 C          -0.9775    1.4089   -1.8555 C.ar    1  UNL1       -0.0160
     24 C          -1.4056    0.5384   -0.8787 C.ar    1  UNL1       -0.0026
     25 C           1.7426    0.7469    0.3663 C.ar    1  UNL1       -0.0025
     26 C           1.2886    1.8325    1.0807 C.ar    1  UNL1       -0.0160
     27 S           2.5766    2.8502    1.5810 S.2     1  UNL1       -0.1038
     28 C           3.7561    1.8416    0.8462 C.ar    1  UNL1       -0.0160
     29 C           3.1897    0.7347    0.2555 C.ar    1  UNL1       -0.0012
     30 H           8.3966   -0.5527   -1.8088 H       1  UNL1        0.0633
     31 H           8.2908   -0.4094    0.9099 H       1  UNL1        0.0807
     32 H           5.8640   -0.2852    1.5395 H       1  UNL1        0.1653
     33 H           5.8258   -0.4797   -2.6597 H       1  UNL1        0.0639
     34 H           3.5201   -2.0799   -1.5311 H       1  UNL1        0.0624
     35 H           1.0893   -2.0533   -1.3483 H       1  UNL1        0.0624
     36 H          -0.6887   -1.7048    1.4957 H       1  UNL1        0.0624
     37 H          -3.1143   -1.7443    1.6867 H       1  UNL1        0.0624
     38 H          -5.3781   -1.2979   -1.6235 H       1  UNL1        0.0625
     39 H          -7.8465   -1.3421   -1.3182 H       1  UNL1        0.0633
     40 H          -8.8112   -0.3963    0.7830 H       1  UNL1        0.0829
     41 H          -5.0915    0.6085    2.2247 H       1  UNL1        0.0836
     42 H          -4.4962    1.6210   -1.7743 H       1  UNL1        0.0700
     43 H           0.0324    1.6311   -2.1734 H       1  UNL1        0.0700
     44 H           0.2724    2.1032    1.3341 H       1  UNL1        0.0700
     45 H           4.7959    2.1343    0.8895 H       1  UNL1        0.0700
@<TRIPOS>BOND
     1     1     2   ar
     2     2     3   ar
     3     3     4   ar
     4     4     5   ar
     5     4     6    1
     6     6     7   ar
     7     7     8   ar
     8     8     9   ar
     9     9    10    1
    10    10    11   ar
    11    11    12   ar
    12    12    13   ar
    13    13    14    1
    14    14    15   ar
    15    15    16   ar
    16    16    17   ar
    17    17    18   ar
    18    18    19   ar
    19    13    20   ar
    20    20    21   ar
    21    21    22   ar
    22    22    23   ar
    23    23    24   ar
    24     9    25   ar
    25    25    26   ar
    26    26    27   ar
    27    27    28   ar
    28    28    29   ar
    29     5     1   ar
    30    29     6   ar
    31    24    10   ar
    32    29    25   ar
    33    19    14   ar
    34    24    20   ar
    35     1    30    1
    36     2    31    1
    37     3    32    1
    38     5    33    1
    39     7    34    1
    40     8    35    1
    41    11    36    1
    42    12    37    1
    43    15    38    1
    44    16    39    1
    45    17    40    1
    46    19    41    1
    47    21    42    1
    48    23    43    1
    49    26    44    1
    50    28    45    1
