@<TRIPOS>MOLECULE
*****
 43 47 0 0 0
SMALL
GASTEIGER

@<TRIPOS>ATOM
      1 C           6.8698    2.9272    0.4482 C.ar    1  UNL1       -0.0438
      2 C           7.2394    1.6165    0.2625 C.ar    1  UNL1        0.0022
      3 N           6.0973    0.8630    0.1944 N.ar    1  UNL1       -0.3607
      4 C           4.9839    1.6664    0.3267 C.ar    1  UNL1        0.0465
      5 C           5.4553    2.9590    0.4955 C.ar    1  UNL1       -0.0364
      6 C           3.6155    1.1462    0.3057 C.ar    1  UNL1       -0.0017
      7 C           2.6285    1.7226    1.1146 C.ar    1  UNL1       -0.0521
      8 C           1.3179    1.2330    1.1042 C.ar    1  UNL1       -0.0534
      9 C           0.9620    0.1586    0.2784 C.ar    1  UNL1       -0.0173
     10 C           1.9494   -0.4167   -0.5330 C.ar    1  UNL1       -0.0534
     11 C           3.2605    0.0727   -0.5211 C.ar    1  UNL1       -0.0521
     12 C          -0.4169   -0.3577    0.2670 C.ar    1  UNL1       -0.0101
     13 C          -0.7373   -1.3770    1.1724 C.ar    1  UNL1       -0.0528
     14 C          -2.0202   -1.9091    1.2178 C.ar    1  UNL1       -0.0499
     15 C          -3.0386   -1.4430    0.3652 C.ar    1  UNL1        0.0269
     16 C          -4.3753   -2.0485    0.5045 C.ar    1  UNL1        0.1636
     17 N          -5.4155   -1.2335    0.7079 N.ar    1  UNL1       -0.2160
     18 C          -6.5805   -1.8543    0.8715 C.ar    1  UNL1        0.1200
     19 N          -6.7778   -3.1697    0.8497 N.ar    1  UNL1       -0.2241
     20 C          -5.6687   -3.8769    0.6508 C.ar    1  UNL1        0.1200
     21 N          -4.4446   -3.3847    0.4815 N.ar    1  UNL1       -0.2160
     22 C          -2.7323   -0.4165   -0.5806 C.ar    1  UNL1       -0.0066
     23 C          -3.6815    0.0834   -1.5092 C.ar    1  UNL1       -0.0533
     24 C          -3.3746    1.0875   -2.4283 C.ar    1  UNL1       -0.0611
     25 C          -2.1010    1.6251   -2.4542 C.ar    1  UNL1       -0.0611
     26 C          -1.1375    1.1511   -1.5657 C.ar    1  UNL1       -0.0534
     27 C          -1.4150    0.1305   -0.6230 C.ar    1  UNL1       -0.0095
     28 H           7.5427    3.7695    0.5424 H       1  UNL1        0.0633
     29 H           8.2135    1.1541    0.1772 H       1  UNL1        0.0807
     30 H           6.0717   -0.1416    0.0860 H       1  UNL1        0.1653
     31 H           4.8407    3.8402    0.6283 H       1  UNL1        0.0639
     32 H           2.8720    2.5540    1.7721 H       1  UNL1        0.0624
     33 H           0.5715    1.6986    1.7449 H       1  UNL1        0.0624
     34 H           1.6968   -1.2472   -1.1895 H       1  UNL1        0.0624
     35 H           3.9903   -0.3842   -1.1842 H       1  UNL1        0.0624
     36 H           0.0200   -1.7610    1.8537 H       1  UNL1        0.0624
     37 H          -2.2349   -2.6977    1.9382 H       1  UNL1        0.0625
     38 H          -7.4509   -1.2288    1.0380 H       1  UNL1        0.1048
     39 H          -5.7715   -4.9565    0.6271 H       1  UNL1        0.1048
     40 H          -4.6952   -0.3111   -1.5336 H       1  UNL1        0.0624
     41 H          -4.1344    1.4435   -3.1188 H       1  UNL1        0.0618
     42 H          -1.8491    2.4086   -3.1635 H       1  UNL1        0.0618
     43 H          -0.1452    1.5960   -1.6220 H       1  UNL1        0.0624
@<TRIPOS>BOND
     1     1     2   ar
     2     2     3   ar
     3     3     4   ar
     4     4     5   ar
     5     4     6    1
     6     6     7   ar
     7     7     8   ar
     8     8     9   ar
     9     9    10   ar
    10    10    11   ar
    11     9    12    1
    12    12    13   ar
    13    13    14   ar
    14    14    15   ar
    15    15    16    1
    16    16    17   ar
    17    17    18   ar
    18    18    19   ar
    19    19    20   ar
    20    20    21   ar
    21    15    22   ar
    22    22    23   ar
    23    23    24   ar
    24    24    25   ar
    25    25    26   ar
    26    26    27   ar
    27     5     1   ar
    28    11     6   ar
    29    27    12   ar
    30    21    16   ar
    31    27    22   ar
    32     1    28    1
    33     2    29    1
    34     3    30    1
    35     5    31    1
    36     7    32    1
    37     8    33    1
    38    10    34    1
    39    11    35    1
    40    13    36    1
    41    14    37    1
    42    18    38    1
    43    20    39    1
    44    23    40    1
    45    24    41    1
    46    25    42    1
    47    26    43    1
