@<TRIPOS>MOLECULE
*****
 40 45 0 0 0
SMALL
GASTEIGER

@<TRIPOS>ATOM
      1 C           7.7803    0.8521    0.4532 C.ar    1  UNL1       -0.0438
      2 C           7.6674   -0.4440    0.8956 C.ar    1  UNL1        0.0022
      3 N           6.3423   -0.7898    0.8547 N.ar    1  UNL1       -0.3606
      4 C           5.5867    0.2646    0.3833 C.ar    1  UNL1        0.0479
      5 C           6.4753    1.3002    0.1383 C.ar    1  UNL1       -0.0364
      6 C           4.1329    0.2071    0.2330 C.ar    1  UNL1        0.0164
      7 C           3.3411    1.3348    0.4387 C.ar    1  UNL1       -0.0492
      8 C           1.9532    1.2558    0.2915 C.ar    1  UNL1       -0.0350
      9 C           1.3654    0.0456   -0.0711 C.ar    1  UNL1        0.0731
     10 N           2.1191   -1.0686   -0.2628 N.ar    1  UNL1       -0.2543
     11 C           3.4645   -0.9591   -0.1220 C.ar    1  UNL1        0.0374
     12 C          -0.0806   -0.1513   -0.2339 C.ar    1  UNL1        0.0285
     13 C          -0.7150   -1.3802    0.0930 C.ar    1  UNL1       -0.0498
     14 C          -2.0996   -1.6308   -0.0436 C.ar    1  UNL1       -0.0506
     15 C          -3.0026   -0.6706   -0.5304 C.ar    1  UNL1        0.0205
     16 C          -4.4186   -0.9192   -0.6597 C.ar    1  UNL1        0.0642
     17 S          -5.0883   -2.1331   -1.6957 S.2     1  UNL1       -0.0922
     18 C          -6.7329   -1.7444   -1.2642 C.ar    1  UNL1       -0.0129
     19 C          -6.6924   -0.7431   -0.3594 C.ar    1  UNL1        0.0278
     20 C          -7.5505    0.0515    0.4165 C.ar    1  UNL1       -0.0156
     21 C          -6.7007    0.8958    1.1439 C.ar    1  UNL1        0.0932
     22 O          -5.3543    0.6997    0.8948 O.2     1  UNL1       -0.4618
     23 C          -5.4351   -0.2971   -0.0303 C.ar    1  UNL1        0.1495
     24 C          -2.4484    0.5847   -0.9086 C.ar    1  UNL1        0.1088
     25 N          -3.1101    1.6321   -1.4340 N.ar    1  UNL1       -0.1901
     26 S          -2.0007    2.8263   -1.6990 S.2     1  UNL1        0.1165
     27 N          -0.6184    2.0851   -1.1742 N.ar    1  UNL1       -0.1901
     28 C          -0.9564    0.8504   -0.7559 C.ar    1  UNL1        0.1096
     29 H           8.7001    1.4164    0.3683 H       1  UNL1        0.0633
     30 H           8.4130   -1.1482    1.2396 H       1  UNL1        0.0807
     31 H           5.9724   -1.6825    1.1526 H       1  UNL1        0.1653
     32 H           6.2125    2.2795   -0.2417 H       1  UNL1        0.0639
     33 H           3.7877    2.2828    0.7272 H       1  UNL1        0.0625
     34 H           1.3542    2.1420    0.4755 H       1  UNL1        0.0639
     35 H           4.0027   -1.8800   -0.3274 H       1  UNL1        0.0836
     36 H          -0.0938   -2.1916    0.4811 H       1  UNL1        0.0625
     37 H          -2.4730   -2.6122    0.2512 H       1  UNL1        0.0625
     38 H          -7.5691   -2.2751   -1.6962 H       1  UNL1        0.0701
     39 H          -8.6296    0.0395    0.4664 H       1  UNL1        0.0655
     40 H          -6.9008    1.6748    1.8679 H       1  UNL1        0.1030
@<TRIPOS>BOND
     1     1     2   ar
     2     2     3   ar
     3     3     4   ar
     4     4     5   ar
     5     4     6    1
     6     6     7   ar
     7     7     8   ar
     8     8     9   ar
     9     9    10   ar
    10    10    11   ar
    11     9    12    1
    12    12    13   ar
    13    13    14   ar
    14    14    15   ar
    15    15    16    1
    16    16    17   ar
    17    17    18   ar
    18    18    19   ar
    19    19    20   ar
    20    20    21   ar
    21    21    22   ar
    22    22    23   ar
    23    15    24   ar
    24    24    25   ar
    25    25    26   ar
    26    26    27   ar
    27    27    28   ar
    28     5     1   ar
    29    11     6   ar
    30    28    12   ar
    31    23    16   ar
    32    28    24   ar
    33    23    19   ar
    34     1    29    1
    35     2    30    1
    36     3    31    1
    37     5    32    1
    38     7    33    1
    39     8    34    1
    40    11    35    1
    41    13    36    1
    42    14    37    1
    43    18    38    1
    44    20    39    1
    45    21    40    1
