@<TRIPOS>MOLECULE
*****
 31 34 0 0 0
SMALL
GASTEIGER

@<TRIPOS>ATOM
      1 C          -6.4688    1.2282    0.0707 C.ar    1  UNL1       -0.0438
      2 C          -6.6996   -0.0865    0.3981 C.ar    1  UNL1        0.0022
      3 N          -5.4867   -0.7211    0.4684 N.ar    1  UNL1       -0.3603
      4 C          -4.4670    0.1632    0.1909 C.ar    1  UNL1        0.0531
      5 C          -5.0673    1.3864   -0.0597 C.ar    1  UNL1       -0.0359
      6 C          -3.0771   -0.2164    0.1890 C.ar    1  UNL1        0.0361
      7 C          -2.5390   -1.4611    0.4490 C.ar    1  UNL1       -0.0449
      8 C          -1.1137   -1.4759    0.3581 C.ar    1  UNL1       -0.0457
      9 C          -0.5816   -0.2424    0.0299 C.ar    1  UNL1        0.0280
     10 S          -1.8368    0.9132   -0.1614 S.2     1  UNL1       -0.0862
     11 C           0.8086    0.1131   -0.1466 C.ar    1  UNL1        0.0460
     12 C           1.3618    1.3405   -0.4748 C.ar    1  UNL1        0.0438
     13 N           2.7412    1.3881   -0.5774 N.ar    1  UNL1       -0.2452
     14 C           3.2369    0.1954   -0.3269 C.ar    1  UNL1        0.1249
     15 S           2.0911   -1.0219    0.0381 S.2     1  UNL1       -0.0653
     16 C           4.6491   -0.0385   -0.3649 C.ar    1  UNL1        0.0718
     17 C           5.4114   -1.1710   -0.1464 C.ar    1  UNL1       -0.0344
     18 C           6.7733   -0.8159   -0.3209 C.ar    1  UNL1       -0.0438
     19 C           6.8104    0.5222   -0.6412 C.ar    1  UNL1        0.0022
     20 N           5.5207    0.9829   -0.6652 N.ar    1  UNL1       -0.3591
     21 H          -7.2239    1.9925   -0.0608 H       1  UNL1        0.0633
     22 H          -7.6185   -0.6251    0.5868 H       1  UNL1        0.0807
     23 H          -5.3627   -1.6982    0.6922 H       1  UNL1        0.1653
     24 H          -4.5546    2.3060   -0.3120 H       1  UNL1        0.0639
     25 H          -3.1233   -2.3379    0.6959 H       1  UNL1        0.0630
     26 H          -0.5188   -2.3649    0.5298 H       1  UNL1        0.0629
     27 H           0.8035    2.2517   -0.6542 H       1  UNL1        0.0841
     28 H           5.0366   -2.1531    0.1117 H       1  UNL1        0.0639
     29 H           7.6322   -1.4674   -0.2230 H       1  UNL1        0.0633
     30 H           7.6388    1.1847   -0.8534 H       1  UNL1        0.0807
     31 H           5.2242    1.9294   -0.8704 H       1  UNL1        0.1654
@<TRIPOS>BOND
     1     1     2   ar
     2     2     3   ar
     3     3     4   ar
     4     4     5   ar
     5     4     6    1
     6     6     7   ar
     7     7     8   ar
     8     8     9   ar
     9     9    10   ar
    10     9    11    1
    11    11    12   ar
    12    12    13   ar
    13    13    14   ar
    14    14    15   ar
    15    14    16    1
    16    16    17   ar
    17    17    18   ar
    18    18    19   ar
    19    19    20   ar
    20     5     1   ar
    21    10     6   ar
    22    15    11   ar
    23    20    16   ar
    24     1    21    1
    25     2    22    1
    26     3    23    1
    27     5    24    1
    28     7    25    1
    29     8    26    1
    30    12    27    1
    31    17    28    1
    32    18    29    1
    33    19    30    1
    34    20    31    1
