@<TRIPOS>MOLECULE
*****
 36 41 0 0 0
SMALL
GASTEIGER

@<TRIPOS>ATOM
      1 C           6.4858    0.8134   -0.5615 C.ar    1  UNL1       -0.0438
      2 C           5.8913    2.0338   -0.7617 C.ar    1  UNL1        0.0022
      3 N           4.5378    1.8684   -0.6304 N.ar    1  UNL1       -0.3607
      4 C           4.2294    0.5512   -0.3453 C.ar    1  UNL1        0.0466
      5 C           5.4488   -0.1141   -0.3012 C.ar    1  UNL1       -0.0364
      6 C           2.8541    0.0536   -0.1462 C.ar    1  UNL1        0.0018
      7 C           2.6341   -1.3068    0.1410 C.ar    1  UNL1       -0.0518
      8 C           1.3473   -1.8380    0.3404 C.ar    1  UNL1       -0.0497
      9 C           0.2442   -0.9777    0.2489 C.ar    1  UNL1        0.0301
     10 C           0.4771    0.3658   -0.0359 C.ar    1  UNL1        0.1370
     11 C           1.7457    0.9149   -0.2375 C.ar    1  UNL1       -0.0096
     12 O          -0.6963    1.0702   -0.0911 O.2     1  UNL1       -0.4541
     13 C          -1.7144    0.1850    0.1593 C.ar    1  UNL1        0.1461
     14 C          -1.1480   -1.0515    0.3647 C.ar    1  UNL1        0.0566
     15 C          -2.0024   -2.1544    0.6467 C.ar    1  UNL1        0.1118
     16 N          -1.5502   -3.3804    0.8583 N.ar    1  UNL1       -0.1900
     17 S          -2.9597   -4.2443    1.1329 S.2     1  UNL1        0.1165
     18 N          -4.1039   -3.0321    0.9743 N.ar    1  UNL1       -0.1901
     19 C          -3.4360   -1.8908    0.6982 C.ar    1  UNL1        0.1084
     20 C          -4.0052   -0.5898    0.4802 C.ar    1  UNL1        0.0138
     21 C          -5.3875   -0.3203    0.5268 C.ar    1  UNL1       -0.0518
     22 C          -5.8524    0.9773    0.3019 C.ar    1  UNL1       -0.0611
     23 C          -4.9554    2.0146    0.0299 C.ar    1  UNL1       -0.0611
     24 C          -3.5813    1.7692   -0.0210 C.ar    1  UNL1       -0.0504
     25 C          -3.0980    0.4690    0.2032 C.ar    1  UNL1        0.0272
     26 H           7.5479    0.6091   -0.5978 H       1  UNL1        0.0633
     27 H           6.3111    3.0052   -0.9859 H       1  UNL1        0.0807
     28 H           3.8654    2.6148   -0.7304 H       1  UNL1        0.1653
     29 H           5.5906   -1.1680   -0.1013 H       1  UNL1        0.0639
     30 H           3.4733   -1.9951    0.2173 H       1  UNL1        0.0624
     31 H           1.2190   -2.8944    0.5603 H       1  UNL1        0.0625
     32 H           1.8322    1.9706   -0.4543 H       1  UNL1        0.0661
     33 H          -6.0964   -1.1185    0.7375 H       1  UNL1        0.0624
     34 H          -6.9201    1.1819    0.3386 H       1  UNL1        0.0618
     35 H          -5.3306    3.0207   -0.1434 H       1  UNL1        0.0618
     36 H          -2.8969    2.5875   -0.2338 H       1  UNL1        0.0625
@<TRIPOS>BOND
     1     1     2   ar
     2     2     3   ar
     3     3     4   ar
     4     4     5   ar
     5     4     6    1
     6     6     7   ar
     7     7     8   ar
     8     8     9   ar
     9     9    10   ar
    10    10    11   ar
    11    10    12   ar
    12    12    13   ar
    13    13    14   ar
    14    14    15   ar
    15    15    16   ar
    16    16    17   ar
    17    17    18   ar
    18    18    19   ar
    19    19    20   ar
    20    20    21   ar
    21    21    22   ar
    22    22    23   ar
    23    23    24   ar
    24    24    25   ar
    25     5     1   ar
    26    11     6   ar
    27    25    13   ar
    28    14     9   ar
    29    19    15   ar
    30    25    20   ar
    31     1    26    1
    32     2    27    1
    33     3    28    1
    34     5    29    1
    35     7    30    1
    36     8    31    1
    37    11    32    1
    38    21    33    1
    39    22    34    1
    40    23    35    1
    41    24    36    1
