@<TRIPOS>MOLECULE
*****
 49 56 0 0 0
SMALL
GASTEIGER

@<TRIPOS>ATOM
      1 SI         -1.3231   -0.6404   -4.0680 Si      1  UNL1        0.0000
      2 C          -2.3085   -1.0662   -2.5564 C.2     1  UNL1        0.0000
      3 C          -1.5934   -0.8786   -1.4276 C.ar    1  UNL1        0.0000
      4 C          -2.1231   -0.9916   -0.0763 C.ar    1  UNL1        0.0000
      5 C          -1.2974   -0.6366    0.9310 C.ar    1  UNL1        0.0000
      6 C           0.1196   -0.2264    0.7751 C.ar    1  UNL1        0.0000
      7 C           0.7111   -0.2444   -0.4618 C.ar    1  UNL1        0.0000
      8 C           2.1955    0.0038   -0.5742 C.ar    1  UNL1        0.0000
      9 C           2.9294   -0.4571   -1.6602 C.ar    1  UNL1        0.0000
     10 N           4.2208   -0.1513   -1.9238 N.ar    1  UNL1        0.0000
     11 C           4.8458    0.6847   -1.0903 C.ar    1  UNL1        0.0000
     12 C           6.1273    1.0805   -1.4265 C.ar    1  UNL1        0.0000
     13 C           6.8034    1.9659   -0.6123 C.ar    1  UNL1        0.0000
     14 N           6.2726    2.4897    0.5029 N.ar    1  UNL1        0.0000
     15 C           5.0195    2.0838    0.8180 C.ar    1  UNL1        0.0000
     16 C           4.2519    1.1547    0.0930 C.ar    1  UNL1        0.0000
     17 C           2.9415    0.6785    0.4139 C.ar    1  UNL1        0.0000
     18 C           2.3165    0.7079    1.7630 C.ar    1  UNL1        0.0000
     19 C           2.9393    0.9697    2.9335 C.2     1  UNL1        0.0000
     20 SI          1.8153    0.7510    4.4066 Si      1  UNL1        0.0000
     21 C           0.5089    0.1788    3.2170 C.2     1  UNL1        0.0000
     22 C           0.9278    0.2062    1.9316 C.ar    1  UNL1        0.0000
     23 C          -0.1858   -0.4483   -1.6325 C.ar    1  UNL1        0.0000
     24 C           0.1000   -0.2069   -2.9319 C.2     1  UNL1        0.0000
     25 C          -3.4579   -1.3653    0.2642 C.ar    1  UNL1        0.0000
     26 S          -3.8135   -2.8895    1.0544 S.2     1  UNL1        0.0000
     27 C          -5.5276   -2.6098    1.0920 C.ar    1  UNL1        0.0000
     28 C          -5.7628   -1.4139    0.5185 C.ar    1  UNL1        0.0000
     29 N          -6.9742   -0.8129    0.3389 N.ar    1  UNL1        0.0000
     30 C          -6.5972    0.3717   -0.2923 C.ar    1  UNL1        0.0000
     31 C          -5.1983    0.4450   -0.4681 C.ar    1  UNL1        0.0000
     32 C          -4.6466   -0.7456    0.0721 C.ar    1  UNL1        0.0000
     33 H          -1.0205   -1.8208   -4.9122 H       1  UNL1        0.0000
     34 H          -1.8487    0.5465   -4.7839 H       1  UNL1        0.0000
     35 H          -3.3452   -1.3557   -2.6315 H       1  UNL1        0.0000
     36 H          -1.6825   -0.6659    1.9454 H       1  UNL1        0.0000
     37 H           2.4981   -1.1350   -2.3912 H       1  UNL1        0.0000
     38 H           6.5939    0.7022   -2.3295 H       1  UNL1        0.0000
     39 H           7.8106    2.2933   -0.8525 H       1  UNL1        0.0000
     40 H           4.6180    2.5984    1.6844 H       1  UNL1        0.0000
     41 H           3.9691    1.2143    3.1231 H       1  UNL1        0.0000
     42 H           2.2759   -0.3265    5.3139 H       1  UNL1        0.0000
     43 H           1.4765    2.0413    5.0526 H       1  UNL1        0.0000
     44 H          -0.4418   -0.1452    3.6052 H       1  UNL1        0.0000
     45 H           0.9991    0.1962   -3.3660 H       1  UNL1        0.0000
     46 H          -6.2218   -3.3208    1.5166 H       1  UNL1        0.0000
     47 H          -7.8886   -1.1581    0.6035 H       1  UNL1        0.0000
     48 H          -7.3639    1.0832   -0.5711 H       1  UNL1        0.0000
     49 H          -4.6652    1.2655   -0.9304 H       1  UNL1        0.0000
@<TRIPOS>BOND
     1     1     2    1
     2     2     3    2
     3     3     4   ar
     4     4     5   ar
     5     5     6   ar
     6     6     7   ar
     7     7     8   ar
     8     8     9   ar
     9     9    10   ar
    10    10    11   ar
    11    11    12   ar
    12    12    13   ar
    13    13    14   ar
    14    14    15   ar
    15    15    16   ar
    16    16    17   ar
    17    17    18   ar
    18    18    19    2
    19    19    20    1
    20    20    21    1
    21    21    22    2
    22     7    23   ar
    23    23    24    2
    24     4    25    1
    25    25    26   ar
    26    26    27   ar
    27    27    28   ar
    28    28    29   ar
    29    29    30   ar
    30    30    31   ar
    31    31    32   ar
    32    24     1    1
    33    32    25   ar
    34    23     3   ar
    35    32    28   ar
    36    22     6   ar
    37    17     8   ar
    38    22    18   ar
    39    16    11   ar
    40     1    33    1
    41     1    34    1
    42     2    35    1
    43     5    36    1
    44     9    37    1
    45    12    38    1
    46    13    39    1
    47    15    40    1
    48    19    41    1
    49    20    42    1
    50    20    43    1
    51    21    44    1
    52    24    45    1
    53    27    46    1
    54    29    47    1
    55    30    48    1
    56    31    49    1
