@<TRIPOS>MOLECULE
*****
 39 45 0 0 0
SMALL
GASTEIGER

@<TRIPOS>ATOM
      1 C           6.5298   -0.7491   -0.4921 C.ar    1  UNL1       -0.0438
      2 C           6.5880    0.5885   -0.1910 C.ar    1  UNL1        0.0022
      3 N           5.3047    1.0414   -0.0323 N.ar    1  UNL1       -0.3606
      4 C           4.3982    0.0153   -0.2257 C.ar    1  UNL1        0.0479
      5 C           5.1614   -1.1092   -0.5143 C.ar    1  UNL1       -0.0364
      6 C           2.9406    0.1801   -0.1248 C.ar    1  UNL1        0.0170
      7 C           2.3295    1.3893    0.1764 C.ar    1  UNL1        0.0374
      8 N           0.9877    1.5935    0.2812 N.ar    1  UNL1       -0.2536
      9 C           0.1170    0.5832    0.0897 C.ar    1  UNL1        0.0816
     10 C           0.6723   -0.6910   -0.2238 C.ar    1  UNL1        0.0124
     11 C           2.0725   -0.8862   -0.3291 C.ar    1  UNL1       -0.0413
     12 C          -0.3083   -1.6868   -0.4072 C.ar    1  UNL1        0.0297
     13 C          -0.1070   -3.0077   -0.7159 C.ar    1  UNL1        0.1000
     14 O          -1.3082   -3.6446   -0.8082 O.2     1  UNL1       -0.4698
     15 C          -2.2816   -2.7197   -0.5558 C.ar    1  UNL1        0.1001
     16 C          -1.7182   -1.4933   -0.3018 C.ar    1  UNL1        0.0303
     17 C          -2.3311   -0.2731    0.0019 C.ar    1  UNL1        0.0210
     18 C          -3.7160   -0.0352    0.1163 C.ar    1  UNL1        0.0572
     19 N          -4.8433   -0.8245   -0.0138 N.ar    1  UNL1       -0.3601
     20 C          -5.9875   -0.0863    0.2037 C.ar    1  UNL1        0.0028
     21 C          -5.6232    1.2120    0.4826 C.ar    1  UNL1       -0.0345
     22 C          -4.2279    1.2100    0.4214 C.ar    1  UNL1        0.0284
     23 C          -3.3448    2.3048    0.6315 C.ar    1  UNL1        0.1097
     24 N          -3.8022    3.5134    0.9259 N.ar    1  UNL1       -0.1901
     25 S          -2.3959    4.4028    1.0666 S.2     1  UNL1        0.1165
     26 N          -1.2632    3.2250    0.7498 N.ar    1  UNL1       -0.1901
     27 C          -1.9115    2.0609    0.5137 C.ar    1  UNL1        0.1103
     28 C          -1.3306    0.7756    0.1965 C.ar    1  UNL1        0.0389
     29 H           7.3771   -1.3969   -0.6762 H       1  UNL1        0.0633
     30 H           7.4294    1.2588   -0.0755 H       1  UNL1        0.0807
     31 H           5.0691    1.9972    0.1950 H       1  UNL1        0.1653
     32 H           4.7800   -2.1002   -0.7226 H       1  UNL1        0.0639
     33 H           2.9017    2.2939    0.3569 H       1  UNL1        0.0836
     34 H           2.4606   -1.8702   -0.5695 H       1  UNL1        0.0631
     35 H           0.7591   -3.6294   -0.8948 H       1  UNL1        0.1036
     36 H          -3.2816   -3.1196   -0.6030 H       1  UNL1        0.1036
     37 H          -4.8488   -1.8079   -0.2369 H       1  UNL1        0.1654
     38 H          -6.9613   -0.5542    0.1398 H       1  UNL1        0.0807
     39 H          -6.2866    2.0395    0.6994 H       1  UNL1        0.0639
@<TRIPOS>BOND
     1     1     2   ar
     2     2     3   ar
     3     3     4   ar
     4     4     5   ar
     5     4     6    1
     6     6     7   ar
     7     7     8   ar
     8     8     9   ar
     9     9    10   ar
    10    10    11   ar
    11    10    12   ar
    12    12    13   ar
    13    13    14   ar
    14    14    15   ar
    15    15    16   ar
    16    16    17   ar
    17    17    18   ar
    18    18    19   ar
    19    19    20   ar
    20    20    21   ar
    21    21    22   ar
    22    22    23   ar
    23    23    24   ar
    24    24    25   ar
    25    25    26   ar
    26    26    27   ar
    27    27    28   ar
    28     5     1   ar
    29    11     6   ar
    30    16    12   ar
    31    28    17   ar
    32    28     9   ar
    33    22    18   ar
    34    27    23   ar
    35     1    29    1
    36     2    30    1
    37     3    31    1
    38     5    32    1
    39     7    33    1
    40    11    34    1
    41    13    35    1
    42    15    36    1
    43    19    37    1
    44    20    38    1
    45    21    39    1
