@<TRIPOS>MOLECULE
*****
 44 51 0 0 0
SMALL
GASTEIGER

@<TRIPOS>ATOM
      1 C           7.0884   -0.5369    1.0344 C.ar    1  UNL1       -0.0438
      2 C           7.1640    0.4225    0.0536 C.ar    1  UNL1        0.0022
      3 N           5.8893    0.6983   -0.3663 N.ar    1  UNL1       -0.3606
      4 C           4.9799   -0.0758    0.3256 C.ar    1  UNL1        0.0479
      5 C           5.7186   -0.8455    1.2110 C.ar    1  UNL1       -0.0364
      6 C           3.5363   -0.0038    0.1092 C.ar    1  UNL1        0.0170
      7 C           2.9766    0.2398   -1.1307 C.ar    1  UNL1        0.0374
      8 N           1.6425    0.3260   -1.3790 N.ar    1  UNL1       -0.2537
      9 C           0.7325    0.1550   -0.3936 C.ar    1  UNL1        0.0799
     10 C           1.2377   -0.1053    0.9060 C.ar    1  UNL1        0.0098
     11 C           2.6365   -0.1815    1.1491 C.ar    1  UNL1       -0.0414
     12 C           0.2213   -0.2170    1.8832 C.ar    1  UNL1       -0.0011
     13 C           0.4920   -0.3370    3.2298 C.ar    1  UNL1       -0.0160
     14 S          -0.9304   -0.2703    4.1744 S.2     1  UNL1       -0.1038
     15 C          -1.9046   -0.0843    2.7785 C.ar    1  UNL1       -0.0160
     16 C          -1.1969   -0.1977    1.6006 C.ar    1  UNL1       -0.0018
     17 C          -1.7877   -0.1025    0.2976 C.ar    1  UNL1        0.0028
     18 C          -3.2375   -0.2600   -0.0765 C.ar    1  UNL1        0.0193
     19 C          -4.2643   -0.9453    0.6986 C.ar    1  UNL1        0.1082
     20 N          -4.0754   -1.6817    1.8096 N.ar    1  UNL1       -0.1901
     21 S          -5.5424   -2.2411    2.3192 S.2     1  UNL1        0.1165
     22 N          -6.5212   -1.6276    1.1377 N.ar    1  UNL1       -0.1908
     23 C          -5.7216   -0.9777    0.2780 C.ar    1  UNL1        0.1005
     24 C          -6.1671   -0.3820   -0.9130 C.ar    1  UNL1       -0.0329
     25 C          -5.1623    0.1578   -1.7152 C.ar    1  UNL1       -0.0513
     26 C          -3.7708    0.1833   -1.3423 C.ar    1  UNL1       -0.0069
     27 C          -2.7346    0.6268   -2.2054 C.ar    1  UNL1       -0.0024
     28 C          -2.9847    1.0882   -3.4825 C.ar    1  UNL1       -0.0160
     29 S          -1.5607    1.5227   -4.3163 S.2     1  UNL1       -0.1038
     30 C          -0.5894    1.0916   -2.9772 C.ar    1  UNL1       -0.0159
     31 C          -1.3107    0.6117   -1.9015 C.ar    1  UNL1       -0.0005
     32 C          -0.7172    0.2152   -0.6540 C.ar    1  UNL1        0.0175
     33 H           7.9264   -0.9672    1.5675 H       1  UNL1        0.0633
     34 H           8.0126    0.9356   -0.3790 H       1  UNL1        0.0807
     35 H           5.6523    1.3897   -1.0652 H       1  UNL1        0.1653
     36 H           5.3140   -1.5685    1.9083 H       1  UNL1        0.0639
     37 H           3.5934    0.3670   -2.0162 H       1  UNL1        0.0836
     38 H           3.0123   -0.3684    2.1500 H       1  UNL1        0.0631
     39 H           1.4423   -0.4118    3.7382 H       1  UNL1        0.0700
     40 H          -2.9546    0.1058    2.9353 H       1  UNL1        0.0700
     41 H          -7.2074   -0.4029   -1.2130 H       1  UNL1        0.0640
     42 H          -5.4785    0.5581   -2.6770 H       1  UNL1        0.0624
     43 H          -3.9222    1.2054   -4.0046 H       1  UNL1        0.0700
     44 H           0.4730    1.2406   -3.0870 H       1  UNL1        0.0700
@<TRIPOS>BOND
     1     1     2   ar
     2     2     3   ar
     3     3     4   ar
     4     4     5   ar
     5     4     6    1
     6     6     7   ar
     7     7     8   ar
     8     8     9   ar
     9     9    10   ar
    10    10    11   ar
    11    10    12   ar
    12    12    13   ar
    13    13    14   ar
    14    14    15   ar
    15    15    16   ar
    16    16    17   ar
    17    17    18   ar
    18    18    19   ar
    19    19    20   ar
    20    20    21   ar
    21    21    22   ar
    22    22    23   ar
    23    23    24   ar
    24    24    25   ar
    25    25    26   ar
    26    26    27   ar
    27    27    28   ar
    28    28    29   ar
    29    29    30   ar
    30    30    31   ar
    31    31    32   ar
    32     5     1   ar
    33    11     6   ar
    34    16    12   ar
    35    32    17   ar
    36    32     9   ar
    37    26    18   ar
    38    31    27   ar
    39    23    19   ar
    40     1    33    1
    41     2    34    1
    42     3    35    1
    43     5    36    1
    44     7    37    1
    45    11    38    1
    46    13    39    1
    47    15    40    1
    48    24    41    1
    49    25    42    1
    50    28    43    1
    51    30    44    1
