@<TRIPOS>MOLECULE
*****
 41 47 0 0 0
SMALL
GASTEIGER

@<TRIPOS>ATOM
      1 C           6.9940   -0.3300   -0.0015 C.ar    1  UNL1       -0.0438
      2 C           6.9762    0.7786    0.8070 C.ar    1  UNL1        0.0022
      3 N           5.6673    1.1147    1.0330 N.ar    1  UNL1       -0.3606
      4 C           4.8189    0.2386    0.3813 C.ar    1  UNL1        0.0479
      5 C           5.6462   -0.6690   -0.2686 C.ar    1  UNL1       -0.0364
      6 C           3.3500    0.3302    0.4265 C.ar    1  UNL1        0.0170
      7 C           2.6742    1.3247    1.1421 C.ar    1  UNL1        0.0375
      8 N           1.3253    1.4658    1.2252 N.ar    1  UNL1       -0.2506
      9 C           0.5769    0.5604    0.5537 C.ar    1  UNL1        0.1144
     10 C          -0.8320    0.7095    0.6417 C.ar    1  UNL1        0.1627
     11 O          -1.4758    1.6944    1.3507 O.2     1  UNL1       -0.4526
     12 C          -2.8177    1.5070    1.1942 C.ar    1  UNL1        0.1370
     13 C          -3.7948    2.3341    1.7833 C.ar    1  UNL1       -0.0181
     14 C          -5.1546    2.0689    1.5698 C.ar    1  UNL1       -0.0500
     15 C          -5.3809    0.9598    0.7574 C.ar    1  UNL1       -0.0101
     16 C          -6.6658    0.5692    0.4535 C.ar    1  UNL1       -0.0166
     17 S          -6.6889   -0.8203   -0.5605 S.2     1  UNL1       -0.1039
     18 C          -4.9662   -0.9079   -0.5990 C.ar    1  UNL1       -0.0159
     19 C          -4.4238    0.0974    0.1424 C.ar    1  UNL1        0.0005
     20 C          -3.0395    0.3997    0.3832 C.ar    1  UNL1        0.0368
     21 C          -1.7908   -0.1031    0.0348 C.ar    1  UNL1        0.0398
     22 C          -1.2564   -1.1819   -0.7443 C.ar    1  UNL1        0.0115
     23 C          -1.8326   -2.1756   -1.4777 C.ar    1  UNL1        0.0101
     24 N          -0.7920   -2.9186   -2.0045 N.ar    1  UNL1       -0.3659
     25 C           0.4173   -2.3935   -1.6036 C.ar    1  UNL1        0.0101
     26 C           0.1558   -1.2991   -0.8091 C.ar    1  UNL1        0.0094
     27 C           1.1398   -0.4866   -0.2019 C.ar    1  UNL1        0.0138
     28 C           2.5494   -0.5915   -0.2577 C.ar    1  UNL1       -0.0412
     29 H           7.8777   -0.8408   -0.3612 H       1  UNL1        0.0633
     30 H           7.7792    1.3586    1.2419 H       1  UNL1        0.0807
     31 H           5.3780    1.8987    1.6007 H       1  UNL1        0.1653
     32 H           5.3207   -1.5003   -0.8800 H       1  UNL1        0.0639
     33 H           3.2075    2.0847    1.7044 H       1  UNL1        0.0836
     34 H          -3.4860    3.1733    2.4000 H       1  UNL1        0.0655
     35 H          -5.9323    2.6835    2.0068 H       1  UNL1        0.0625
     36 H          -7.6007    1.0151    0.7651 H       1  UNL1        0.0699
     37 H          -4.5200   -1.6967   -1.1678 H       1  UNL1        0.0700
     38 H          -2.8371   -2.4734   -1.7098 H       1  UNL1        0.0813
     39 H          -0.9037   -3.7307   -2.5985 H       1  UNL1        0.1648
     40 H           1.3406   -2.8551   -1.9268 H       1  UNL1        0.0813
     41 H           2.9966   -1.3929   -0.8357 H       1  UNL1        0.0631
@<TRIPOS>BOND
     1     1     2   ar
     2     2     3   ar
     3     3     4   ar
     4     4     5   ar
     5     4     6    1
     6     6     7   ar
     7     7     8   ar
     8     8     9   ar
     9     9    10   ar
    10    10    11   ar
    11    11    12   ar
    12    12    13   ar
    13    13    14   ar
    14    14    15   ar
    15    15    16   ar
    16    16    17   ar
    17    17    18   ar
    18    18    19   ar
    19    19    20   ar
    20    20    21   ar
    21    21    22   ar
    22    22    23   ar
    23    23    24   ar
    24    24    25   ar
    25    25    26   ar
    26    26    27   ar
    27    27    28   ar
    28     5     1   ar
    29    28     6   ar
    30    27     9   ar
    31    21    10   ar
    32    26    22   ar
    33    20    12   ar
    34    19    15   ar
    35     1    29    1
    36     2    30    1
    37     3    31    1
    38     5    32    1
    39     7    33    1
    40    13    34    1
    41    14    35    1
    42    16    36    1
    43    18    37    1
    44    23    38    1
    45    24    39    1
    46    25    40    1
    47    28    41    1
