@<TRIPOS>MOLECULE
*****
 41 47 0 0 0
SMALL
GASTEIGER

@<TRIPOS>ATOM
      1 C           7.4952    0.9188   -0.7974 C.ar    1  UNL1       -0.0438
      2 C           7.1125    0.2732   -1.9493 C.ar    1  UNL1        0.0022
      3 N           5.7679    0.0345   -1.8655 N.ar    1  UNL1       -0.3594
      4 C           5.2624    0.5172   -0.6752 C.ar    1  UNL1        0.0671
      5 C           6.3353    1.0725    0.0026 C.ar    1  UNL1       -0.0349
      6 C           3.8514    0.3811   -0.3598 C.ar    1  UNL1        0.1151
      7 N           3.0756   -0.2462   -1.3027 N.ar    1  UNL1       -0.2506
      8 C           1.7317   -0.4244   -1.0987 C.ar    1  UNL1        0.0388
      9 C           0.9881   -0.0195    0.0090 C.ar    1  UNL1        0.0371
     10 C          -0.4304   -0.2558    0.1722 C.ar    1  UNL1        0.0509
     11 S          -1.5554    0.8212   -0.5474 S.2     1  UNL1       -0.0836
     12 C          -2.9201   -0.0506    0.0441 C.ar    1  UNL1        0.0509
     13 C          -4.2704    0.4129   -0.2379 C.ar    1  UNL1        0.0371
     14 C          -5.2414    0.6206    0.7491 C.ar    1  UNL1        0.0380
     15 N          -6.5360    1.0512    0.5772 N.ar    1  UNL1       -0.2604
     16 C          -7.0220    1.3121   -0.6710 C.ar    1  UNL1        0.0557
     17 C          -6.1638    1.1220   -1.7723 C.ar    1  UNL1        0.1185
     18 N          -6.4703    1.3155   -3.0654 N.ar    1  UNL1       -0.1892
     19 S          -5.1084    0.9314   -3.9317 S.2     1  UNL1        0.1165
     20 N          -4.0735    0.5039   -2.7092 N.ar    1  UNL1       -0.1900
     21 C          -4.7453    0.6543   -1.5516 C.ar    1  UNL1        0.1110
     22 C          -2.5110   -1.1274    0.8019 C.ar    1  UNL1        0.1046
     23 N          -3.3766   -1.9852    1.4174 N.ar    1  UNL1       -0.2508
     24 C          -2.7009   -2.9658    2.0782 C.ar    1  UNL1        0.0464
     25 C          -1.3076   -3.0943    2.1264 C.ar    1  UNL1        0.0464
     26 N          -0.4222   -2.2558    1.5216 N.ar    1  UNL1       -0.2508
     27 C          -1.0742   -1.2563    0.8605 C.ar    1  UNL1        0.1046
     28 C           1.7437    0.6342    1.0110 C.ar    1  UNL1        0.1117
     29 N           1.2812    1.1318    2.1731 N.ar    1  UNL1       -0.1900
     30 S           2.5807    1.7798    2.9687 S.2     1  UNL1        0.1166
     31 N           3.7900    1.4830    1.8784 N.ar    1  UNL1       -0.1885
     32 C           3.2322    0.8468    0.8304 C.ar    1  UNL1        0.1278
     33 H           8.4985    1.2452   -0.5558 H       1  UNL1        0.0633
     34 H           7.6778   -0.0367   -2.8178 H       1  UNL1        0.0807
     35 H           5.1969   -0.4273   -2.5629 H       1  UNL1        0.1654
     36 H           6.2968    1.5441    0.9768 H       1  UNL1        0.0639
     37 H           1.2367   -0.9467   -1.9181 H       1  UNL1        0.0837
     38 H          -4.9911    0.4379    1.7955 H       1  UNL1        0.0836
     39 H          -8.0476    1.6461   -0.7553 H       1  UNL1        0.0852
     40 H          -3.3314   -3.6857    2.5936 H       1  UNL1        0.0845
     41 H          -0.8549   -3.9136    2.6787 H       1  UNL1        0.0845
@<TRIPOS>BOND
     1     1     2   ar
     2     2     3   ar
     3     3     4   ar
     4     4     5   ar
     5     4     6    1
     6     6     7   ar
     7     7     8   ar
     8     8     9   ar
     9     9    10    1
    10    10    11   ar
    11    11    12   ar
    12    12    13    1
    13    13    14   ar
    14    14    15   ar
    15    15    16   ar
    16    16    17   ar
    17    17    18   ar
    18    18    19   ar
    19    19    20   ar
    20    20    21   ar
    21    12    22   ar
    22    22    23   ar
    23    23    24   ar
    24    24    25   ar
    25    25    26   ar
    26    26    27   ar
    27     9    28   ar
    28    28    29   ar
    29    29    30   ar
    30    30    31   ar
    31    31    32   ar
    32     5     1   ar
    33    32     6   ar
    34    27    10   ar
    35    32    28   ar
    36    21    13   ar
    37    27    22   ar
    38    21    17   ar
    39     1    33    1
    40     2    34    1
    41     3    35    1
    42     5    36    1
    43     8    37    1
    44    14    38    1
    45    16    39    1
    46    24    40    1
    47    25    41    1
