@<TRIPOS>MOLECULE
*****
 43 48 0 0 0
SMALL
GASTEIGER

@<TRIPOS>ATOM
      1 C          -6.8189   -0.9374    2.3149 C.ar    1  UNL1       -0.0438
      2 C          -7.3334   -0.3984    1.1602 C.ar    1  UNL1        0.0022
      3 N          -6.2818   -0.0725    0.3452 N.ar    1  UNL1       -0.3602
      4 C          -5.0861   -0.3910    0.9507 C.ar    1  UNL1        0.0542
      5 C          -5.4083   -0.9336    2.1846 C.ar    1  UNL1       -0.0359
      6 C          -3.8012   -0.1690    0.3440 C.ar    1  UNL1        0.0503
      7 S          -2.3200   -0.6276    1.1129 S.2     1  UNL1       -0.0850
      8 C          -1.3343   -0.0516   -0.1737 C.ar    1  UNL1        0.0288
      9 C           0.1065   -0.1605   -0.0996 C.ar    1  UNL1       -0.0015
     10 C           0.8185   -1.3798   -0.0073 C.ar    1  UNL1       -0.0523
     11 C           2.2531   -1.4685    0.0487 C.ar    1  UNL1       -0.0527
     12 C           3.1347   -0.3526    0.0157 C.ar    1  UNL1       -0.0073
     13 C           4.5860   -0.4522    0.0665 C.ar    1  UNL1        0.0009
     14 C           5.2398   -1.1110    1.1144 C.ar    1  UNL1       -0.0511
     15 C           6.6309   -1.1977    1.1317 C.ar    1  UNL1       -0.0430
     16 C           7.3378   -0.6224    0.0900 C.ar    1  UNL1        0.0276
     17 N           6.7560    0.0171   -0.9451 N.ar    1  UNL1       -0.2627
     18 C           5.4013    0.0823   -0.9317 C.ar    1  UNL1        0.0353
     19 C           2.4064    0.8443   -0.0644 C.ar    1  UNL1        0.0077
     20 C           2.9012    2.1271   -0.0642 C.ar    1  UNL1        0.0100
     21 N           1.8249    2.9853   -0.1265 N.ar    1  UNL1       -0.3659
     22 C           0.6474    2.2710   -0.1550 C.ar    1  UNL1        0.0100
     23 C           0.9756    0.9364   -0.1193 C.ar    1  UNL1        0.0082
     24 C          -2.1580    0.4494   -1.1253 C.ar    1  UNL1        0.0046
     25 C          -1.9268    1.0300   -2.3997 C.ar    1  UNL1       -0.0459
     26 C          -3.1084    1.4041   -3.0452 C.ar    1  UNL1       -0.0231
     27 S          -4.6004    1.0859   -2.1787 S.2     1  UNL1       -0.0954
     28 C          -3.5323    0.4037   -0.8762 C.ar    1  UNL1        0.0361
     29 H          -7.3926   -1.2951    3.1601 H       1  UNL1        0.0633
     30 H          -8.3530   -0.2184    0.8470 H       1  UNL1        0.0807
     31 H          -6.3657    0.3431   -0.5735 H       1  UNL1        0.1653
     32 H          -4.7033   -1.2927    2.9237 H       1  UNL1        0.0639
     33 H           0.2562   -2.3143    0.0145 H       1  UNL1        0.0624
     34 H           2.6854   -2.4692    0.1077 H       1  UNL1        0.0624
     35 H           4.6683   -1.5496    1.9292 H       1  UNL1        0.0625
     36 H           7.1487   -1.7002    1.9409 H       1  UNL1        0.0633
     37 H           8.4228   -0.6627    0.0596 H       1  UNL1        0.0829
     38 H           4.9703    0.5936   -1.7895 H       1  UNL1        0.0836
     39 H           3.9076    2.5210   -0.0113 H       1  UNL1        0.0813
     40 H           1.8898    3.9953   -0.1293 H       1  UNL1        0.1648
     41 H          -0.3033    2.7864   -0.1823 H       1  UNL1        0.0813
     42 H          -0.9492    1.1767   -2.8441 H       1  UNL1        0.0629
     43 H          -3.1921    1.8653   -4.0201 H       1  UNL1        0.0694
@<TRIPOS>BOND
     1     1     2   ar
     2     2     3   ar
     3     3     4   ar
     4     4     5   ar
     5     4     6    1
     6     6     7   ar
     7     7     8   ar
     8     8     9    1
     9     9    10   ar
    10    10    11   ar
    11    11    12   ar
    12    12    13    1
    13    13    14   ar
    14    14    15   ar
    15    15    16   ar
    16    16    17   ar
    17    17    18   ar
    18    12    19   ar
    19    19    20   ar
    20    20    21   ar
    21    21    22   ar
    22    22    23   ar
    23     8    24   ar
    24    24    25   ar
    25    25    26   ar
    26    26    27   ar
    27    27    28   ar
    28     5     1   ar
    29    28     6   ar
    30    23     9   ar
    31    28    24   ar
    32    18    13   ar
    33    23    19   ar
    34     1    29    1
    35     2    30    1
    36     3    31    1
    37     5    32    1
    38    10    33    1
    39    11    34    1
    40    14    35    1
    41    15    36    1
    42    16    37    1
    43    18    38    1
    44    20    39    1
    45    21    40    1
    46    22    41    1
    47    25    42    1
    48    26    43    1
