@<TRIPOS>MOLECULE
*****
 43 48 0 0 0
SMALL
GASTEIGER

@<TRIPOS>ATOM
      1 C          -6.6548   -1.1440   -2.1548 C.ar    1  UNL1       -0.0438
      2 C          -7.1310   -0.7942   -0.9127 C.ar    1  UNL1        0.0022
      3 N          -6.0593   -0.4369   -0.1393 N.ar    1  UNL1       -0.3602
      4 C          -4.8913   -0.5491   -0.8620 C.ar    1  UNL1        0.0553
      5 C          -5.2457   -0.9904   -2.1245 C.ar    1  UNL1       -0.0359
      6 C          -3.6088   -0.2329   -0.2850 C.ar    1  UNL1        0.0635
      7 S          -2.1541   -0.3693   -1.1962 S.2     1  UNL1       -0.0824
      8 C          -1.1591    0.1426    0.1082 C.ar    1  UNL1        0.0480
      9 C           0.2785    0.2244   -0.0910 C.ar    1  UNL1       -0.0009
     10 C           0.8928    1.1323   -0.9856 C.ar    1  UNL1       -0.0523
     11 C           2.3067    1.2212   -1.1834 C.ar    1  UNL1       -0.0528
     12 C           3.2600    0.4111   -0.5142 C.ar    1  UNL1       -0.0082
     13 C           4.6936    0.5136   -0.7390 C.ar    1  UNL1        0.0008
     14 C           5.4060   -0.4788   -1.4218 C.ar    1  UNL1       -0.0511
     15 C           6.7773   -0.3402   -1.6263 C.ar    1  UNL1       -0.0430
     16 C           7.4014    0.7970   -1.1425 C.ar    1  UNL1        0.0276
     17 N           6.7565    1.7816   -0.4828 N.ar    1  UNL1       -0.2627
     18 C           5.4239    1.6166   -0.2988 C.ar    1  UNL1        0.0353
     19 C           2.6477   -0.4911    0.3786 C.ar    1  UNL1       -0.0025
     20 C           3.3387   -1.3775    1.1737 C.ar    1  UNL1       -0.0160
     21 S           2.2837   -2.3340    2.1315 S.2     1  UNL1       -0.1038
     22 C           0.8892   -1.5558    1.5020 C.ar    1  UNL1       -0.0160
     23 C           1.2132   -0.5817    0.5849 C.ar    1  UNL1       -0.0020
     24 C          -1.9208    0.4204    1.2209 C.ar    1  UNL1        0.1046
     25 N          -1.3962    0.8543    2.4042 N.ar    1  UNL1       -0.2508
     26 C          -2.3697    1.0503    3.3312 C.ar    1  UNL1        0.0464
     27 C          -3.7361    0.8396    3.1186 C.ar    1  UNL1        0.0464
     28 N          -4.2940    0.4082    1.9536 N.ar    1  UNL1       -0.2507
     29 C          -3.3327    0.2032    0.9973 C.ar    1  UNL1        0.1059
     30 H          -7.2539   -1.4745   -2.9934 H       1  UNL1        0.0633
     31 H          -8.1354   -0.7685   -0.5122 H       1  UNL1        0.0807
     32 H          -6.0937   -0.1308    0.8272 H       1  UNL1        0.1653
     33 H          -4.5681   -1.1852   -2.9458 H       1  UNL1        0.0639
     34 H           0.2617    1.8129   -1.5590 H       1  UNL1        0.0624
     35 H           2.6652    1.9589   -1.9043 H       1  UNL1        0.0624
     36 H           4.8942   -1.3610   -1.8000 H       1  UNL1        0.0625
     37 H           7.3432   -1.1002   -2.1531 H       1  UNL1        0.0633
     38 H           8.4682    0.9513   -1.2777 H       1  UNL1        0.0829
     39 H           4.9404    2.4286    0.2396 H       1  UNL1        0.0836
     40 H           4.4063   -1.5293    1.2561 H       1  UNL1        0.0700
     41 H          -0.0851   -1.8607    1.8573 H       1  UNL1        0.0700
     42 H          -2.0147    1.3975    4.2978 H       1  UNL1        0.0845
     43 H          -4.4436    1.0237    3.9228 H       1  UNL1        0.0845
@<TRIPOS>BOND
     1     1     2   ar
     2     2     3   ar
     3     3     4   ar
     4     4     5   ar
     5     4     6    1
     6     6     7   ar
     7     7     8   ar
     8     8     9    1
     9     9    10   ar
    10    10    11   ar
    11    11    12   ar
    12    12    13    1
    13    13    14   ar
    14    14    15   ar
    15    15    16   ar
    16    16    17   ar
    17    17    18   ar
    18    12    19   ar
    19    19    20   ar
    20    20    21   ar
    21    21    22   ar
    22    22    23   ar
    23     8    24   ar
    24    24    25   ar
    25    25    26   ar
    26    26    27   ar
    27    27    28   ar
    28    28    29   ar
    29     5     1   ar
    30    29     6   ar
    31    23     9   ar
    32    29    24   ar
    33    18    13   ar
    34    23    19   ar
    35     1    30    1
    36     2    31    1
    37     3    32    1
    38     5    33    1
    39    10    34    1
    40    11    35    1
    41    14    36    1
    42    15    37    1
    43    16    38    1
    44    18    39    1
    45    20    40    1
    46    22    41    1
    47    26    42    1
    48    27    43    1
