@<TRIPOS>MOLECULE
*****
 43 48 0 0 0
SMALL
GASTEIGER

@<TRIPOS>ATOM
      1 C          -7.0610    1.8147   -0.9750 C.ar    1  UNL1       -0.0438
      2 C          -7.3474    1.1275    0.1828 C.ar    1  UNL1        0.0022
      3 N          -6.2220    0.4376    0.5521 N.ar    1  UNL1       -0.3602
      4 C          -5.2215    0.6529   -0.3661 C.ar    1  UNL1        0.0552
      5 C          -5.7163    1.5259   -1.3149 C.ar    1  UNL1       -0.0359
      6 C          -3.9299    0.0626   -0.2501 C.ar    1  UNL1        0.0599
      7 S          -2.4562    0.9672   -0.2614 S.2     1  UNL1       -0.0840
      8 C          -1.4474   -0.4366   -0.0117 C.ar    1  UNL1        0.0306
      9 C           0.0063   -0.3231    0.0708 C.ar    1  UNL1        0.0075
     10 C           0.8376   -1.2594   -0.5448 C.ar    1  UNL1       -0.0500
     11 C           2.2262   -1.1388   -0.4455 C.ar    1  UNL1       -0.0351
     12 C           2.7746   -0.0775    0.2727 C.ar    1  UNL1        0.0717
     13 N           1.9862    0.8417    0.8793 N.ar    1  UNL1       -0.2543
     14 C           0.6402    0.7004    0.7673 C.ar    1  UNL1        0.0365
     15 C           4.2167    0.0941    0.4272 C.ar    1  UNL1        0.0110
     16 C           5.1601   -0.9644    0.5963 C.ar    1  UNL1       -0.0519
     17 C           6.5858   -0.7910    0.7412 C.ar    1  UNL1       -0.0604
     18 C           7.2377    0.4608    0.7318 C.ar    1  UNL1       -0.0510
     19 C           6.3100    1.4784    0.5683 C.ar    1  UNL1        0.0205
     20 C           6.5740    2.8200    0.5045 C.ar    1  UNL1        0.0994
     21 O           5.4045    3.5057    0.3256 O.2     1  UNL1       -0.4698
     22 C           4.3910    2.5866    0.2800 C.ar    1  UNL1        0.1000
     23 C           4.8973    1.3192    0.4285 C.ar    1  UNL1        0.0290
     24 C          -2.2747   -1.5082    0.0327 C.ar    1  UNL1        0.0151
     25 C          -2.2552   -2.9204    0.1851 C.ar    1  UNL1       -0.0355
     26 C          -3.5902   -3.3689    0.1000 C.ar    1  UNL1        0.0028
     27 N          -4.4744   -2.3113   -0.0967 N.ar    1  UNL1       -0.3597
     28 C          -3.6204   -1.2440   -0.1061 C.ar    1  UNL1        0.0635
     29 H          -7.7414    2.4624   -1.5129 H       1  UNL1        0.0633
     30 H          -8.2473    1.0822    0.7816 H       1  UNL1        0.0807
     31 H          -6.1269   -0.1206    1.3902 H       1  UNL1        0.1653
     32 H          -5.1699    1.9085   -2.1679 H       1  UNL1        0.0639
     33 H           0.4182   -2.0812   -1.1199 H       1  UNL1        0.0625
     34 H           2.8618   -1.8641   -0.9434 H       1  UNL1        0.0639
     35 H           0.0734    1.4665    1.2905 H       1  UNL1        0.0836
     36 H           4.7888   -1.9899    0.6393 H       1  UNL1        0.0624
     37 H           7.1945   -1.6872    0.8701 H       1  UNL1        0.0618
     38 H           8.3055    0.5833    0.8399 H       1  UNL1        0.0625
     39 H           7.4658    3.4276    0.5587 H       1  UNL1        0.1035
     40 H           3.4001    2.9966    0.1431 H       1  UNL1        0.1036
     41 H          -1.3928   -3.5568    0.3338 H       1  UNL1        0.0639
     42 H          -3.9829   -4.3763    0.1571 H       1  UNL1        0.0807
     43 H          -5.4784   -2.3029   -0.2322 H       1  UNL1        0.1654
@<TRIPOS>BOND
     1     1     2   ar
     2     2     3   ar
     3     3     4   ar
     4     4     5   ar
     5     4     6    1
     6     6     7   ar
     7     7     8   ar
     8     8     9    1
     9     9    10   ar
    10    10    11   ar
    11    11    12   ar
    12    12    13   ar
    13    13    14   ar
    14    12    15    1
    15    15    16   ar
    16    16    17   ar
    17    17    18   ar
    18    18    19   ar
    19    19    20   ar
    20    20    21   ar
    21    21    22   ar
    22    22    23   ar
    23     8    24   ar
    24    24    25   ar
    25    25    26   ar
    26    26    27   ar
    27    27    28   ar
    28     5     1   ar
    29    28     6   ar
    30    14     9   ar
    31    23    15   ar
    32    28    24   ar
    33    23    19   ar
    34     1    29    1
    35     2    30    1
    36     3    31    1
    37     5    32    1
    38    10    33    1
    39    11    34    1
    40    14    35    1
    41    16    36    1
    42    17    37    1
    43    18    38    1
    44    20    39    1
    45    22    40    1
    46    25    41    1
    47    26    42    1
    48    27    43    1
