@<TRIPOS>MOLECULE
*****
 37 41 0 0 0
SMALL
GASTEIGER

@<TRIPOS>ATOM
      1 C           6.6991   -1.6869    0.0115 C.ar    1  UNL1       -0.0438
      2 C           5.8263   -2.7363   -0.1395 C.ar    1  UNL1        0.0022
      3 N           4.5589   -2.2211   -0.1719 N.ar    1  UNL1       -0.3602
      4 C           4.5869   -0.8455   -0.0441 C.ar    1  UNL1        0.0542
      5 C           5.9229   -0.5014    0.0714 C.ar    1  UNL1       -0.0359
      6 C           3.3808   -0.0579   -0.0476 C.ar    1  UNL1        0.0503
      7 S           1.8269   -0.7820   -0.2120 S.2     1  UNL1       -0.0845
      8 C           0.9553    0.7137   -0.1295 C.ar    1  UNL1        0.0348
      9 C          -0.4962    0.7664   -0.2160 C.ar    1  UNL1        0.0271
     10 C          -1.3202    1.8738   -0.1662 C.ar    1  UNL1       -0.0458
     11 C          -2.7081    1.5557   -0.2827 C.ar    1  UNL1       -0.0463
     12 C          -2.9524    0.2013   -0.4226 C.ar    1  UNL1        0.0199
     13 S          -1.4601   -0.6480   -0.4067 S.2     1  UNL1       -0.0877
     14 C          -4.2502   -0.5061   -0.5692 C.ar    1  UNL1       -0.0113
     15 C          -4.3435   -1.9033   -0.7034 C.ar    1  UNL1       -0.0535
     16 C          -5.5808   -2.5444   -0.8402 C.ar    1  UNL1       -0.0612
     17 C          -6.7561   -1.8021   -0.8460 C.ar    1  UNL1       -0.0617
     18 C          -6.6944   -0.4197   -0.7153 C.ar    1  UNL1       -0.0612
     19 C          -5.4560    0.2188   -0.5786 C.ar    1  UNL1       -0.0535
     20 C           1.8921    1.6935    0.0195 C.ar    1  UNL1        0.0051
     21 C           1.8389    3.1145    0.1467 C.ar    1  UNL1       -0.0458
     22 C           3.0942    3.7113    0.2806 C.ar    1  UNL1       -0.0231
     23 S           4.4645    2.6341    0.2680 S.2     1  UNL1       -0.0954
     24 C           3.2420    1.3019    0.0685 C.ar    1  UNL1        0.0361
     25 H           7.7772   -1.7602    0.0726 H       1  UNL1        0.0633
     26 H           5.9951   -3.8012   -0.2265 H       1  UNL1        0.0807
     27 H           3.7109   -2.7625   -0.2749 H       1  UNL1        0.1653
     28 H           6.3270    0.4938    0.1881 H       1  UNL1        0.0639
     29 H          -0.9768    2.8899   -0.0512 H       1  UNL1        0.0629
     30 H          -3.4829    2.3112   -0.2621 H       1  UNL1        0.0629
     31 H          -3.4560   -2.5308   -0.7051 H       1  UNL1        0.0624
     32 H          -5.6201   -3.6261   -0.9419 H       1  UNL1        0.0618
     33 H          -7.7164   -2.2996   -0.9522 H       1  UNL1        0.0618
     34 H          -7.6091    0.1677   -0.7189 H       1  UNL1        0.0618
     35 H          -5.4599    1.3006   -0.4796 H       1  UNL1        0.0624
     36 H           0.9438    3.7187    0.1459 H       1  UNL1        0.0629
     37 H           3.2963    4.7683    0.3904 H       1  UNL1        0.0694
@<TRIPOS>BOND
     1     1     2   ar
     2     2     3   ar
     3     3     4   ar
     4     4     5   ar
     5     4     6    1
     6     6     7   ar
     7     7     8   ar
     8     8     9    1
     9     9    10   ar
    10    10    11   ar
    11    11    12   ar
    12    12    13   ar
    13    12    14    1
    14    14    15   ar
    15    15    16   ar
    16    16    17   ar
    17    17    18   ar
    18    18    19   ar
    19     8    20   ar
    20    20    21   ar
    21    21    22   ar
    22    22    23   ar
    23    23    24   ar
    24     5     1   ar
    25    24     6   ar
    26    13     9   ar
    27    19    14   ar
    28    24    20   ar
    29     1    25    1
    30     2    26    1
    31     3    27    1
    32     5    28    1
    33    10    29    1
    34    11    30    1
    35    15    31    1
    36    16    32    1
    37    17    33    1
    38    18    34    1
    39    19    35    1
    40    21    36    1
    41    22    37    1
