@<TRIPOS>MOLECULE
*****
 36 41 0 0 0
SMALL
GASTEIGER

@<TRIPOS>ATOM
      1 C          -6.3811   -0.6835   -1.0098 C.ar    1  UNL1       -0.0438
      2 C          -5.7609   -1.7805   -1.5594 C.ar    1  UNL1        0.0022
      3 N          -4.4212   -1.6820   -1.2919 N.ar    1  UNL1       -0.3602
      4 C          -4.1625   -0.5400   -0.5650 C.ar    1  UNL1        0.0537
      5 C          -5.3764    0.0986   -0.3871 C.ar    1  UNL1       -0.0359
      6 C          -2.8419   -0.1759   -0.1343 C.ar    1  UNL1        0.0443
      7 S          -1.4271   -0.8004   -0.9101 S.2     1  UNL1       -0.0845
      8 C          -0.3484    0.0759    0.1003 C.ar    1  UNL1        0.0414
      9 C           1.0725    0.0221   -0.0372 C.ar    1  UNL1        0.0359
     10 S           1.9574   -1.4374    0.1709 S.2     1  UNL1       -0.0839
     11 C           3.4883   -0.6894   -0.1263 C.ar    1  UNL1        0.0591
     12 C           4.7467   -1.3858   -0.0851 C.ar    1  UNL1        0.1159
     13 N           5.8873   -0.7761    0.1708 N.ar    1  UNL1       -0.2468
     14 C           6.9322   -1.6771    0.1439 C.ar    1  UNL1        0.0355
     15 C           6.5845   -2.9792   -0.1330 C.ar    1  UNL1       -0.0042
     16 S           4.8925   -3.0832   -0.3695 S.2     1  UNL1       -0.0751
     17 C           3.3111    0.6471   -0.3882 C.ar    1  UNL1        0.0367
     18 S           4.4720    1.9803   -0.7997 S.2     1  UNL1       -0.0954
     19 C           3.0511    3.0055   -0.8815 C.ar    1  UNL1       -0.0231
     20 C           1.8249    2.3859   -0.6256 C.ar    1  UNL1       -0.0458
     21 C           1.9600    1.0033   -0.3291 C.ar    1  UNL1        0.0052
     22 C          -1.0449    0.8088    1.0222 C.ar    1  UNL1        0.0352
     23 S          -0.4934    1.8924    2.3644 S.2     1  UNL1       -0.0955
     24 C          -2.2013    2.1015    2.7004 C.ar    1  UNL1       -0.0231
     25 C          -3.0864    1.4096    1.8672 C.ar    1  UNL1       -0.0458
     26 C          -2.4254    0.6466    0.8638 C.ar    1  UNL1        0.0060
     27 H          -7.4403   -0.4648   -1.0552 H       1  UNL1        0.0633
     28 H          -6.1539   -2.6182   -2.1199 H       1  UNL1        0.0807
     29 H          -3.7161   -2.3480   -1.5789 H       1  UNL1        0.1653
     30 H          -5.5350    1.0382    0.1241 H       1  UNL1        0.0639
     31 H           7.9387   -1.3254    0.3356 H       1  UNL1        0.0835
     32 H           7.2238   -3.8469   -0.2057 H       1  UNL1        0.0709
     33 H           3.2103    4.0470   -1.1263 H       1  UNL1        0.0694
     34 H           0.8868    2.9272   -0.6570 H       1  UNL1        0.0629
     35 H          -2.4650    2.7426    3.5308 H       1  UNL1        0.0694
     36 H          -4.1586    1.4611    2.0060 H       1  UNL1        0.0629
@<TRIPOS>BOND
     1     1     2   ar
     2     2     3   ar
     3     3     4   ar
     4     4     5   ar
     5     4     6    1
     6     6     7   ar
     7     7     8   ar
     8     8     9    1
     9     9    10   ar
    10    10    11   ar
    11    11    12    1
    12    12    13   ar
    13    13    14   ar
    14    14    15   ar
    15    15    16   ar
    16    11    17   ar
    17    17    18   ar
    18    18    19   ar
    19    19    20   ar
    20    20    21   ar
    21     8    22   ar
    22    22    23   ar
    23    23    24   ar
    24    24    25   ar
    25    25    26   ar
    26     5     1   ar
    27    26     6   ar
    28    21     9   ar
    29    26    22   ar
    30    16    12   ar
    31    21    17   ar
    32     1    27    1
    33     2    28    1
    34     3    29    1
    35     5    30    1
    36    14    31    1
    37    15    32    1
    38    19    33    1
    39    20    34    1
    40    24    35    1
    41    25    36    1
