@<TRIPOS>MOLECULE
*****
 33 38 0 0 0
SMALL
GASTEIGER

@<TRIPOS>ATOM
      1 C           4.9189    0.2019   -0.4758 C.ar    1  UNL1       -0.0463
      2 C           5.2778    0.2227   -1.8119 C.ar    1  UNL1       -0.0231
      3 S           3.9209    0.0505   -2.8641 S.2     1  UNL1       -0.0955
      4 C           2.8518   -0.0275   -1.5505 C.ar    1  UNL1        0.0342
      5 C           3.5245    0.0602   -0.3633 C.ar    1  UNL1       -0.0015
      6 C           2.7308   -0.0702    0.8164 C.ar    1  UNL1       -0.0020
      7 C           3.2805   -0.1240    2.0699 C.ar    1  UNL1       -0.0160
      8 S           2.0519   -0.4493    3.2352 S.2     1  UNL1       -0.1038
      9 C           0.8198   -0.5197    2.0255 C.ar    1  UNL1       -0.0160
     10 C           1.3238   -0.2046    0.7904 C.ar    1  UNL1       -0.0014
     11 C           0.5490   -0.1664   -0.4330 C.ar    1  UNL1        0.0068
     12 C           1.3036   -0.1848   -1.5804 C.ar    1  UNL1        0.0354
     13 S           0.3533   -0.4481   -2.9442 S.2     1  UNL1       -0.0871
     14 C          -1.0969   -0.4802   -1.9991 C.ar    1  UNL1        0.0211
     15 C          -2.3790   -0.7704   -2.4987 C.ar    1  UNL1       -0.0468
     16 C          -3.4778   -0.6630   -1.6523 C.ar    1  UNL1       -0.0529
     17 C          -3.3348   -0.1714   -0.3590 C.ar    1  UNL1       -0.0172
     18 C          -4.4732    0.0473    0.4337 C.ar    1  UNL1       -0.0540
     19 C          -4.3685    0.6421    1.6895 C.ar    1  UNL1       -0.0612
     20 C          -3.1268    1.0517    2.1553 C.ar    1  UNL1       -0.0611
     21 C          -1.9833    0.8235    1.3858 C.ar    1  UNL1       -0.0534
     22 C          -2.0453    0.1523    0.1430 C.ar    1  UNL1       -0.0091
     23 C          -0.8714   -0.1381   -0.6513 C.ar    1  UNL1        0.0052
     24 H           5.6346    0.2785    0.3321 H       1  UNL1        0.0629
     25 H           6.2699    0.3192   -2.2314 H       1  UNL1        0.0694
     26 H           4.3103   -0.0357    2.3854 H       1  UNL1        0.0700
     27 H          -0.1761   -0.8123    2.3221 H       1  UNL1        0.0700
     28 H          -2.5143   -1.0695   -3.5348 H       1  UNL1        0.0629
     29 H          -4.4628   -0.9024   -2.0484 H       1  UNL1        0.0624
     30 H          -5.4617   -0.2209    0.0658 H       1  UNL1        0.0624
     31 H          -5.2605    0.8173    2.2852 H       1  UNL1        0.0618
     32 H          -3.0443    1.5629    3.1111 H       1  UNL1        0.0618
     33 H          -1.0446    1.2283    1.7518 H       1  UNL1        0.0624
@<TRIPOS>BOND
     1     1     2   ar
     2     2     3   ar
     3     3     4   ar
     4     4     5   ar
     5     5     6   ar
     6     6     7   ar
     7     7     8   ar
     8     8     9   ar
     9     9    10   ar
    10    10    11   ar
    11    11    12   ar
    12    12    13   ar
    13    13    14   ar
    14    14    15   ar
    15    15    16   ar
    16    16    17   ar
    17    17    18   ar
    18    18    19   ar
    19    19    20   ar
    20    20    21   ar
    21    21    22   ar
    22    22    23   ar
    23     1     5   ar
    24    10     6   ar
    25    11    23   ar
    26    12     4   ar
    27    23    14   ar
    28    22    17   ar
    29     1    24    1
    30     2    25    1
    31     7    26    1
    32     9    27    1
    33    15    28    1
    34    16    29    1
    35    18    30    1
    36    19    31    1
    37    20    32    1
    38    21    33    1
