@<TRIPOS>MOLECULE
*****
 43 49 0 0 0
SMALL
GASTEIGER

@<TRIPOS>ATOM
      1 SI          2.7861   -1.4022    3.4140 Si      1  UNL1        0.0000
      2 C           3.5521   -0.9147    1.7944 C.2     1  UNL1        0.0000
      3 C           2.6309   -0.4966    0.8989 C.ar    1  UNL1        0.0000
      4 C           2.9221   -0.2078   -0.5104 C.ar    1  UNL1        0.0000
      5 C           1.8704   -0.0843   -1.3496 C.ar    1  UNL1        0.0000
      6 C           0.4832   -0.0825   -0.8721 C.ar    1  UNL1        0.0000
      7 C          -0.6095    0.0657   -1.7244 C.ar    1  UNL1        0.0000
      8 C          -0.5747    0.1161   -3.0984 C.ar    1  UNL1        0.0000
      9 N          -1.8620    0.3015   -3.5327 N.ar    1  UNL1        0.0000
     10 C          -2.7129    0.3886   -2.4516 C.ar    1  UNL1        0.0000
     11 C          -1.9741    0.2040   -1.3040 C.ar    1  UNL1        0.0000
     12 C          -2.4198    0.2556    0.0567 C.ar    1  UNL1        0.0000
     13 C          -3.7669    0.4037    0.5892 C.ar    1  UNL1        0.0000
     14 C          -4.9832    0.3404   -0.1141 C.ar    1  UNL1        0.0000
     15 N          -6.2192    0.5011    0.4192 N.ar    1  UNL1        0.0000
     16 C          -6.2710    0.7257    1.7395 C.ar    1  UNL1        0.0000
     17 C          -5.1475    0.7806    2.5367 C.ar    1  UNL1        0.0000
     18 C          -3.8979    0.6109    1.9695 C.ar    1  UNL1        0.0000
     19 N          -2.8484    0.6622    2.7895 N.ar    1  UNL1        0.0000
     20 C          -1.6126    0.4475    2.2708 C.ar    1  UNL1        0.0000
     21 C          -1.2849    0.1700    0.9413 C.ar    1  UNL1        0.0000
     22 C           0.0941   -0.1120    0.5016 C.ar    1  UNL1        0.0000
     23 C           1.2284   -0.4882    1.4163 C.ar    1  UNL1        0.0000
     24 C           1.1228   -1.0086    2.6594 C.2     1  UNL1        0.0000
     25 C           4.2224   -0.0841   -1.1137 C.ar    1  UNL1        0.0000
     26 N           4.6448   -0.7102   -2.2008 N.ar    1  UNL1        0.0000
     27 C           5.9323   -0.3283   -2.5174 C.ar    1  UNL1        0.0000
     28 C           6.4926    0.6151   -1.6889 C.ar    1  UNL1        0.0000
     29 S           5.3751    1.0487   -0.4693 S.2     1  UNL1        0.0000
     30 H           2.9435   -2.8452    3.7126 H       1  UNL1        0.0000
     31 H           3.1356   -0.4725    4.5143 H       1  UNL1        0.0000
     32 H           4.6080   -1.0624    1.6320 H       1  UNL1        0.0000
     33 H           2.0392    0.0922   -2.4076 H       1  UNL1        0.0000
     34 H           0.2326    0.0431   -3.8144 H       1  UNL1        0.0000
     35 H          -2.1419    0.3944   -4.5012 H       1  UNL1        0.0000
     36 H          -3.7511    0.6003   -2.6482 H       1  UNL1        0.0000
     37 H          -5.0217    0.1094   -1.1693 H       1  UNL1        0.0000
     38 H          -7.2646    0.8565    2.1571 H       1  UNL1        0.0000
     39 H          -5.2417    0.9530    3.6032 H       1  UNL1        0.0000
     40 H          -0.8410    0.5750    3.0243 H       1  UNL1        0.0000
     41 H           0.2374   -1.2522    3.2217 H       1  UNL1        0.0000
     42 H           6.4188   -0.7723   -3.3772 H       1  UNL1        0.0000
     43 H           7.4740    1.0627   -1.7448 H       1  UNL1        0.0000
@<TRIPOS>BOND
     1     1     2    1
     2     2     3    2
     3     3     4   ar
     4     4     5   ar
     5     5     6   ar
     6     6     7   ar
     7     7     8   ar
     8     8     9   ar
     9     9    10   ar
    10    10    11   ar
    11    11    12   ar
    12    12    13   ar
    13    13    14   ar
    14    14    15   ar
    15    15    16   ar
    16    16    17   ar
    17    17    18   ar
    18    18    19   ar
    19    19    20   ar
    20    20    21   ar
    21    21    22   ar
    22    22    23   ar
    23    23    24    2
    24     4    25    1
    25    25    26   ar
    26    26    27   ar
    27    27    28   ar
    28    28    29   ar
    29    24     1    1
    30    29    25   ar
    31    23     3   ar
    32    22     6   ar
    33    11     7   ar
    34    21    12   ar
    35    18    13   ar
    36     1    30    1
    37     1    31    1
    38     2    32    1
    39     5    33    1
    40     8    34    1
    41     9    35    1
    42    10    36    1
    43    14    37    1
    44    16    38    1
    45    17    39    1
    46    20    40    1
    47    24    41    1
    48    27    42    1
    49    28    43    1
