@<TRIPOS>MOLECULE
*****
 36 41 0 0 0
SMALL
GASTEIGER

@<TRIPOS>ATOM
      1 C           4.8185   -0.6437    0.2676 C.ar    1  UNL1       -0.0464
      2 C           5.4354    0.5084    0.6982 C.ar    1  UNL1       -0.0231
      3 S           4.3442    1.8193    0.8499 S.2     1  UNL1       -0.0960
      4 C           2.9687    0.8615    0.3662 C.ar    1  UNL1        0.0276
      5 C           3.4402   -0.4120    0.0952 C.ar    1  UNL1       -0.0020
      6 C           2.4908   -1.3505   -0.4106 C.ar    1  UNL1       -0.0020
      7 C           2.8107   -2.5976   -0.8680 C.ar    1  UNL1       -0.0160
      8 S           1.4117   -3.3094   -1.5613 S.2     1  UNL1       -0.1038
      9 C           0.4604   -1.9098   -1.2277 C.ar    1  UNL1       -0.0160
     10 C           1.1297   -0.9542   -0.4848 C.ar    1  UNL1       -0.0019
     11 C           0.5370    0.2854   -0.0719 C.ar    1  UNL1       -0.0003
     12 C           1.5772    1.2269    0.2297 C.ar    1  UNL1       -0.0024
     13 C           1.2384    2.5787    0.3723 C.ar    1  UNL1       -0.0523
     14 C          -0.0735    3.0021    0.1869 C.ar    1  UNL1       -0.0534
     15 C          -1.1169    2.0896    0.0029 C.ar    1  UNL1       -0.0167
     16 C          -2.4086    2.5982   -0.1615 C.ar    1  UNL1       -0.0534
     17 C          -3.5052    1.7525   -0.2553 C.ar    1  UNL1       -0.0534
     18 C          -3.3485    0.3829   -0.0699 C.ar    1  UNL1       -0.0173
     19 C          -4.4916   -0.4346   -0.0284 C.ar    1  UNL1       -0.0540
     20 C          -4.3951   -1.7865    0.2827 C.ar    1  UNL1       -0.0612
     21 C          -3.1561   -2.3235    0.5875 C.ar    1  UNL1       -0.0611
     22 C          -2.0150   -1.5167    0.5262 C.ar    1  UNL1       -0.0534
     23 C          -2.0504   -0.1584    0.1245 C.ar    1  UNL1       -0.0096
     24 C          -0.8749    0.6928    0.0038 C.ar    1  UNL1       -0.0018
     25 H           5.3503   -1.5698    0.0932 H       1  UNL1        0.0629
     26 H           6.4837    0.6536    0.9208 H       1  UNL1        0.0694
     27 H           3.7583   -3.1162   -0.8901 H       1  UNL1        0.0700
     28 H          -0.5492   -1.8897   -1.6125 H       1  UNL1        0.0700
     29 H           1.9907    3.3392    0.5668 H       1  UNL1        0.0624
     30 H          -0.2771    4.0712    0.2303 H       1  UNL1        0.0624
     31 H          -2.5793    3.6719   -0.2159 H       1  UNL1        0.0624
     32 H          -4.4920    2.1878   -0.3955 H       1  UNL1        0.0624
     33 H          -5.4783   -0.0126   -0.2092 H       1  UNL1        0.0624
     34 H          -5.2877   -2.4041    0.3261 H       1  UNL1        0.0618
     35 H          -3.0683   -3.3647    0.8868 H       1  UNL1        0.0618
     36 H          -1.0783   -1.9679    0.8452 H       1  UNL1        0.0624
@<TRIPOS>BOND
     1     1     2   ar
     2     2     3   ar
     3     3     4   ar
     4     4     5   ar
     5     5     6   ar
     6     6     7   ar
     7     7     8   ar
     8     8     9   ar
     9     9    10   ar
    10    10    11   ar
    11    11    12   ar
    12    12    13   ar
    13    13    14   ar
    14    14    15   ar
    15    15    16   ar
    16    16    17   ar
    17    17    18   ar
    18    18    19   ar
    19    19    20   ar
    20    20    21   ar
    21    21    22   ar
    22    22    23   ar
    23    23    24   ar
    24     1     5   ar
    25    10     6   ar
    26    24    11   ar
    27    12     4   ar
    28    24    15   ar
    29    23    18   ar
    30     1    25    1
    31     2    26    1
    32     7    27    1
    33     9    28    1
    34    13    29    1
    35    14    30    1
    36    16    31    1
    37    17    32    1
    38    19    33    1
    39    20    34    1
    40    21    35    1
    41    22    36    1
