@<TRIPOS>MOLECULE
*****
 35 38 0 0 0
SMALL
GASTEIGER

@<TRIPOS>ATOM
      1 C          -1.2618   -3.1138   -0.2379 C.ar    1  UNL1       -0.0598
      2 C          -0.6944   -1.9210    0.2152 C.ar    1  UNL1       -0.0378
      3 C          -1.0806   -0.6998   -0.3538 C.ar    1  UNL1        0.0486
      4 N          -0.5007    0.5204    0.1016 N.ar    1  UNL1       -0.2921
      5 C           0.8358    0.7482    0.4523 C.ar    1  UNL1        0.1463
      6 C           1.9616   -0.1773    0.2702 C.ar    1  UNL1        0.0179
      7 C           2.1965   -0.8256   -0.9514 C.ar    1  UNL1       -0.0497
      8 C           3.2849   -1.6912   -1.0977 C.ar    1  UNL1       -0.0427
      9 C           4.1534   -1.8996   -0.0283 C.ar    1  UNL1        0.0410
     10 CL          5.4910   -2.9660   -0.2090 Cl      1  UNL1       -0.0835
     11 C           3.9487   -1.2444    1.1836 C.ar    1  UNL1       -0.0427
     12 C           2.8596   -0.3806    1.3286 C.ar    1  UNL1       -0.0497
     13 N           0.9979    1.9711    0.9257 N.ar    1  UNL1       -0.2272
     14 C          -0.2170    2.5831    0.8260 C.ar    1  UNL1        0.0900
     15 C          -0.5667    3.8970    1.1756 C.ar    1  UNL1       -0.0342
     16 C          -1.8934    4.3104    1.0253 C.ar    1  UNL1       -0.0596
     17 C          -2.8586    3.4257    0.5508 C.ar    1  UNL1       -0.0597
     18 C          -2.5266    2.1117    0.1991 C.ar    1  UNL1       -0.0357
     19 C          -1.1810    1.7178    0.3174 C.ar    1  UNL1        0.0739
     20 C          -2.0374   -0.6854   -1.3769 C.ar    1  UNL1       -0.0378
     21 C          -2.5990   -1.8826   -1.8261 C.ar    1  UNL1       -0.0598
     22 C          -2.2122   -3.0945   -1.2569 C.ar    1  UNL1       -0.0616
     23 H          -0.9659   -4.0593    0.2104 H       1  UNL1        0.0618
     24 H           0.0182   -1.9695    1.0352 H       1  UNL1        0.0638
     25 H           1.5404   -0.6587   -1.8030 H       1  UNL1        0.0625
     26 H           3.4511   -2.1914   -2.0481 H       1  UNL1        0.0632
     27 H           4.6326   -1.3928    2.0149 H       1  UNL1        0.0632
     28 H           2.7128    0.1428    2.2722 H       1  UNL1        0.0625
     29 H           0.1886    4.5716    1.5644 H       1  UNL1        0.0639
     30 H          -2.1733    5.3253    1.2967 H       1  UNL1        0.0618
     31 H          -3.8915    3.7570    0.4627 H       1  UNL1        0.0618
     32 H          -3.3023    1.4290   -0.1306 H       1  UNL1        0.0639
     33 H          -2.3265    0.2381   -1.8723 H       1  UNL1        0.0638
     34 H          -3.3332   -1.8707   -2.6281 H       1  UNL1        0.0618
     35 H          -2.6513   -4.0251   -1.6079 H       1  UNL1        0.0618
@<TRIPOS>BOND
     1     1     2   ar
     2     2     3   ar
     3     3     4    1
     4     4     5   ar
     5     5     6    1
     6     6     7   ar
     7     7     8   ar
     8     8     9   ar
     9     9    10    1
    10     9    11   ar
    11    11    12   ar
    12     5    13   ar
    13    13    14   ar
    14    14    15   ar
    15    15    16   ar
    16    16    17   ar
    17    17    18   ar
    18    18    19   ar
    19     3    20   ar
    20    20    21   ar
    21    21    22   ar
    22    22     1   ar
    23    19     4   ar
    24    12     6   ar
    25    19    14   ar
    26     1    23    1
    27     2    24    1
    28     7    25    1
    29     8    26    1
    30    11    27    1
    31    12    28    1
    32    15    29    1
    33    16    30    1
    34    17    31    1
    35    18    32    1
    36    20    33    1
    37    21    34    1
    38    22    35    1
