@<TRIPOS>MOLECULE
*****
 39 42 0 0 0
SMALL
GASTEIGER

@<TRIPOS>ATOM
      1 C          -3.2975    2.2686    0.0439 C.ar    1  UNL1       -0.0598
      2 C          -2.2700    1.3808   -0.2823 C.ar    1  UNL1       -0.0378
      3 C          -1.1354    1.2893    0.5352 C.ar    1  UNL1        0.0486
      4 N          -0.0839    0.3832    0.2079 N.ar    1  UNL1       -0.2921
      5 C          -0.2054   -0.9135   -0.3072 C.ar    1  UNL1        0.1463
      6 C          -1.4477   -1.6799   -0.4696 C.ar    1  UNL1        0.0178
      7 C          -2.3796   -1.8070    0.5702 C.ar    1  UNL1       -0.0511
      8 C          -3.5481   -2.5510    0.3881 C.ar    1  UNL1       -0.0611
      9 C          -3.7882   -3.1878   -0.8282 C.ar    1  UNL1       -0.0617
     10 C          -2.8575   -3.0900   -1.8606 C.ar    1  UNL1       -0.0611
     11 C          -1.6901   -2.3454   -1.6793 C.ar    1  UNL1       -0.0511
     12 N           0.9821   -1.4246   -0.5829 N.ar    1  UNL1       -0.2271
     13 C           1.9000   -0.4955   -0.1887 C.ar    1  UNL1        0.0935
     14 C           3.3027   -0.5753   -0.2507 C.ar    1  UNL1        0.0075
     15 C           4.0654    0.5152    0.1737 C.ar    1  UNL1        0.1222
     16 O           5.4332    0.5827    0.1723 O.3     1  UNL1       -0.4950
     17 C           6.1305   -0.5730   -0.2772 C.3     1  UNL1        0.0788
     18 C           3.4288    1.6687    0.6350 C.ar    1  UNL1       -0.0179
     19 C           2.0329    1.7664    0.7017 C.ar    1  UNL1       -0.0323
     20 C           1.2818    0.6465    0.3090 C.ar    1  UNL1        0.0741
     21 C          -1.0419    2.0926    1.6792 C.ar    1  UNL1       -0.0378
     22 C          -2.0742    2.9770    2.0000 C.ar    1  UNL1       -0.0598
     23 C          -3.1996    3.0655    1.1828 C.ar    1  UNL1       -0.0616
     24 H          -4.1733    2.3416   -0.5965 H       1  UNL1        0.0618
     25 H          -2.3651    0.7980   -1.1955 H       1  UNL1        0.0638
     26 H          -2.2030   -1.3344    1.5337 H       1  UNL1        0.0625
     27 H          -4.2664   -2.6392    1.1992 H       1  UNL1        0.0618
     28 H          -4.6950   -3.7709   -0.9673 H       1  UNL1        0.0618
     29 H          -3.0342   -3.5993   -2.8044 H       1  UNL1        0.0618
     30 H          -0.9609   -2.2874   -2.4855 H       1  UNL1        0.0625
     31 H           3.7403   -1.4860   -0.6375 H       1  UNL1        0.0676
     32 H           5.9148   -1.4374    0.3595 H       1  UNL1        0.0660
     33 H           5.9034   -0.7870   -1.3268 H       1  UNL1        0.0660
     34 H           7.2024   -0.3655   -0.2045 H       1  UNL1        0.0660
     35 H           4.0331    2.5210    0.9413 H       1  UNL1        0.0655
     36 H           1.5714    2.6919    1.0279 H       1  UNL1        0.0640
     37 H          -0.1996    2.0144    2.3620 H       1  UNL1        0.0638
     38 H          -2.0044    3.5915    2.8943 H       1  UNL1        0.0618
     39 H          -4.0018    3.7548    1.4343 H       1  UNL1        0.0618
@<TRIPOS>BOND
     1     1     2   ar
     2     2     3   ar
     3     3     4    1
     4     4     5   ar
     5     5     6    1
     6     6     7   ar
     7     7     8   ar
     8     8     9   ar
     9     9    10   ar
    10    10    11   ar
    11     5    12   ar
    12    12    13   ar
    13    13    14   ar
    14    14    15   ar
    15    15    16    1
    16    16    17    1
    17    15    18   ar
    18    18    19   ar
    19    19    20   ar
    20     3    21   ar
    21    21    22   ar
    22    22    23   ar
    23    23     1   ar
    24    20     4   ar
    25    11     6   ar
    26    20    13   ar
    27     1    24    1
    28     2    25    1
    29     7    26    1
    30     8    27    1
    31     9    28    1
    32    10    29    1
    33    11    30    1
    34    14    31    1
    35    17    32    1
    36    17    33    1
    37    17    34    1
    38    18    35    1
    39    19    36    1
    40    21    37    1
    41    22    38    1
    42    23    39    1
