@<TRIPOS>MOLECULE
*****
 42 45 0 0 0
SMALL
GASTEIGER

@<TRIPOS>ATOM
      1 C           1.8256    1.1761    0.7089 C.ar    1  UNL1       -0.0387
      2 C           0.5378    0.6357    0.8471 C.ar    1  UNL1       -0.0360
      3 C           0.1385   -0.4359    0.0499 C.ar    1  UNL1        0.0487
      4 N          -1.1697   -0.9856    0.1763 N.ar    1  UNL1       -0.2921
      5 C          -2.3684   -0.2897    0.3780 C.ar    1  UNL1        0.1464
      6 C          -2.5575    1.1659    0.3436 C.ar    1  UNL1        0.0207
      7 C          -3.3198    1.7789    1.3404 C.ar    1  UNL1       -0.0329
      8 C          -3.4986    3.1503    1.2889 C.ar    1  UNL1        0.0282
      9 N          -2.9817    3.9375    0.3221 N.ar    1  UNL1       -0.2632
     10 C          -2.2750    3.3217   -0.6489 C.ar    1  UNL1        0.0282
     11 C          -2.0442    1.9566   -0.6869 C.ar    1  UNL1       -0.0329
     12 N          -3.3772   -1.1265    0.5461 N.ar    1  UNL1       -0.2272
     13 C          -2.8640   -2.3802    0.3866 C.ar    1  UNL1        0.0900
     14 C          -3.5318   -3.6137    0.4461 C.ar    1  UNL1       -0.0342
     15 C          -2.7973   -4.7926    0.2909 C.ar    1  UNL1       -0.0596
     16 C          -1.4191   -4.7449    0.0967 C.ar    1  UNL1       -0.0597
     17 C          -0.7379   -3.5231    0.0363 C.ar    1  UNL1       -0.0357
     18 C          -1.4925   -2.3414    0.1543 C.ar    1  UNL1        0.0739
     19 C           1.0404   -0.9598   -0.8740 C.ar    1  UNL1       -0.0360
     20 C           2.3234   -0.4044   -1.0005 C.ar    1  UNL1       -0.0387
     21 C           2.7551    0.6869   -0.2258 C.ar    1  UNL1        0.0293
     22 N           4.0411    1.2243   -0.3463 N.pl3   1  UNL1       -0.3360
     23 C           4.3211    2.5339    0.2415 C.3     1  UNL1        0.0004
     24 C           4.8630    0.8615   -1.4994 C.3     1  UNL1        0.0004
     25 H           2.0818    1.9961    1.3736 H       1  UNL1        0.0637
     26 H          -0.1106    1.0525    1.6143 H       1  UNL1        0.0639
     27 H          -3.7698    1.1965    2.1384 H       1  UNL1        0.0640
     28 H          -4.0824    3.6666    2.0456 H       1  UNL1        0.0830
     29 H          -1.8884    3.9755   -1.4255 H       1  UNL1        0.0830
     30 H          -1.4800    1.5300   -1.5090 H       1  UNL1        0.0640
     31 H          -4.6023   -3.6405    0.6193 H       1  UNL1        0.0639
     32 H          -3.3061   -5.7523    0.3391 H       1  UNL1        0.0618
     33 H          -0.8590   -5.6732    0.0025 H       1  UNL1        0.0618
     34 H           0.3411   -3.5118   -0.0752 H       1  UNL1        0.0639
     35 H           0.7652   -1.7701   -1.5442 H       1  UNL1        0.0639
     36 H           2.9784   -0.8563   -1.7396 H       1  UNL1        0.0637
     37 H           5.3564    2.8413    0.0555 H       1  UNL1        0.0428
     38 H           4.2064    2.5120    1.3305 H       1  UNL1        0.0428
     39 H           3.6674    3.3039   -0.1831 H       1  UNL1        0.0428
     40 H           5.0641   -0.2150   -1.5202 H       1  UNL1        0.0428
     41 H           4.3826    1.1652   -2.4361 H       1  UNL1        0.0428
     42 H           5.8440    1.3482   -1.4579 H       1  UNL1        0.0428
@<TRIPOS>BOND
     1     1     2   ar
     2     2     3   ar
     3     3     4    1
     4     4     5   ar
     5     5     6    1
     6     6     7   ar
     7     7     8   ar
     8     8     9   ar
     9     9    10   ar
    10    10    11   ar
    11     5    12   ar
    12    12    13   ar
    13    13    14   ar
    14    14    15   ar
    15    15    16   ar
    16    16    17   ar
    17    17    18   ar
    18     3    19   ar
    19    19    20   ar
    20    20    21   ar
    21    21    22    1
    22    22    23    1
    23    22    24    1
    24    21     1   ar
    25    18     4   ar
    26    11     6   ar
    27    18    13   ar
    28     1    25    1
    29     2    26    1
    30     7    27    1
    31     8    28    1
    32    10    29    1
    33    11    30    1
    34    14    31    1
    35    15    32    1
    36    16    33    1
    37    17    34    1
    38    19    35    1
    39    20    36    1
    40    23    37    1
    41    23    38    1
    42    23    39    1
    43    24    40    1
    44    24    41    1
    45    24    42    1
