@<TRIPOS>MOLECULE
*****
 40 43 0 0 0
SMALL
GASTEIGER

@<TRIPOS>ATOM
      1 C           1.8943   -0.7261   -0.5501 C.ar    1  UNL1       -0.0387
      2 C           0.5889   -0.2673   -0.7941 C.ar    1  UNL1       -0.0360
      3 C          -0.0997    0.4625    0.1756 C.ar    1  UNL1        0.0502
      4 N          -1.4306    0.9292   -0.0583 N.ar    1  UNL1       -0.2754
      5 C          -2.4199    0.3675   -0.8854 C.ar    1  UNL1        0.1493
      6 C          -2.4106   -0.9737   -1.4840 C.ar    1  UNL1        0.0208
      7 C          -2.7962   -1.1310   -2.8172 C.ar    1  UNL1       -0.0329
      8 C          -2.7963   -2.4037   -3.3608 C.ar    1  UNL1        0.0282
      9 N          -2.4489   -3.5116   -2.6729 N.ar    1  UNL1       -0.2632
     10 C          -2.1115   -3.3428   -1.3772 C.ar    1  UNL1        0.0282
     11 C          -2.0853   -2.1122   -0.7422 C.ar    1  UNL1       -0.0329
     12 N          -3.4531    1.1841   -1.0256 N.ar    1  UNL1       -0.2063
     13 C          -3.2176    2.2143   -0.1766 C.ar    1  UNL1        0.1983
     14 N          -4.0471    3.2654    0.0387 N.ar    1  UNL1       -0.2316
     15 C          -3.5563    4.1465    0.9381 C.ar    1  UNL1        0.0482
     16 C          -2.3321    4.0024    1.5770 C.ar    1  UNL1        0.0481
     17 N          -1.4871    2.9636    1.3730 N.ar    1  UNL1       -0.2326
     18 C          -1.9966    2.0803    0.4751 C.ar    1  UNL1        0.1846
     19 C           0.5546    0.7453    1.3742 C.ar    1  UNL1       -0.0360
     20 C           1.8599    0.2784    1.6025 C.ar    1  UNL1       -0.0387
     21 C           2.5761   -0.4643    0.6494 C.ar    1  UNL1        0.0293
     22 N           3.8668   -0.9442    0.8972 N.pl3   1  UNL1       -0.3360
     23 C           4.6518   -0.3308    1.9681 C.3     1  UNL1        0.0004
     24 C           4.6417   -1.5130   -0.2043 C.3     1  UNL1        0.0004
     25 H           2.3658   -1.2935   -1.3475 H       1  UNL1        0.0637
     26 H           0.1667   -0.4740   -1.7738 H       1  UNL1        0.0639
     27 H          -3.0978   -0.2790   -3.4187 H       1  UNL1        0.0640
     28 H          -3.0875   -2.5707   -4.3939 H       1  UNL1        0.0830
     29 H          -1.8572   -4.2537   -0.8424 H       1  UNL1        0.0830
     30 H          -1.8179   -2.0566    0.3077 H       1  UNL1        0.0640
     31 H          -4.1909    5.0033    1.1407 H       1  UNL1        0.0846
     32 H          -1.9892    4.7468    2.2891 H       1  UNL1        0.0846
     33 H           0.0723    1.2974    2.1769 H       1  UNL1        0.0639
     34 H           2.2960    0.5124    2.5693 H       1  UNL1        0.0637
     35 H           4.7724    0.7454    1.8017 H       1  UNL1        0.0428
     36 H           4.1905   -0.5034    2.9462 H       1  UNL1        0.0428
     37 H           5.6546   -0.7689    2.0283 H       1  UNL1        0.0428
     38 H           4.1370   -2.3837   -0.6367 H       1  UNL1        0.0428
     39 H           5.6165   -1.8744    0.1423 H       1  UNL1        0.0428
     40 H           4.8232   -0.7659   -0.9848 H       1  UNL1        0.0428
@<TRIPOS>BOND
     1     1     2   ar
     2     2     3   ar
     3     3     4    1
     4     4     5   ar
     5     5     6    1
     6     6     7   ar
     7     7     8   ar
     8     8     9   ar
     9     9    10   ar
    10    10    11   ar
    11     5    12   ar
    12    12    13   ar
    13    13    14   ar
    14    14    15   ar
    15    15    16   ar
    16    16    17   ar
    17    17    18   ar
    18     3    19   ar
    19    19    20   ar
    20    20    21   ar
    21    21    22    1
    22    22    23    1
    23    22    24    1
    24    21     1   ar
    25    18     4   ar
    26    11     6   ar
    27    18    13   ar
    28     1    25    1
    29     2    26    1
    30     7    27    1
    31     8    28    1
    32    10    29    1
    33    11    30    1
    34    15    31    1
    35    16    32    1
    36    19    33    1
    37    20    34    1
    38    23    35    1
    39    23    36    1
    40    23    37    1
    41    24    38    1
    42    24    39    1
    43    24    40    1
