@<TRIPOS>MOLECULE
*****
 47 53 0 0 0
SMALL
GASTEIGER

@<TRIPOS>ATOM
      1 C          -2.2688   -3.4127    0.4273 C.3     1  UNL1       -0.0148
      2 C          -3.1579   -2.2223    0.2242 C.2     1  UNL1       -0.0719
      3 C          -2.4086   -1.1130    0.1147 C.ar    1  UNL1       -0.0133
      4 C          -2.8431    0.2597   -0.1759 C.ar    1  UNL1       -0.0071
      5 C          -1.8932    1.2144   -0.3409 C.ar    1  UNL1       -0.0294
      6 C          -0.5354    0.8182   -0.1775 C.ar    1  UNL1        0.0487
      7 N           0.5025    1.6881   -0.3476 N.ar    1  UNL1       -0.3536
      8 C           1.6846    1.0311   -0.1009 C.ar    1  UNL1        0.0559
      9 C           1.3721   -0.2721    0.3031 C.ar    1  UNL1        0.0160
     10 C          -0.0245   -0.4317    0.1543 C.ar    1  UNL1        0.0154
     11 C          -0.9854   -1.4784    0.2684 C.ar    1  UNL1       -0.0115
     12 C          -0.8952   -2.8069    0.4080 C.2     1  UNL1       -0.0719
     13 C           2.4514   -1.1016    0.7296 C.ar    1  UNL1       -0.0114
     14 C           2.4810   -2.2939    1.3407 C.2     1  UNL1       -0.0719
     15 C           3.8982   -2.7007    1.6100 C.3     1  UNL1       -0.0148
     16 C           4.6759   -1.5233    1.1063 C.2     1  UNL1       -0.0719
     17 C           3.8318   -0.5981    0.6170 C.ar    1  UNL1       -0.0134
     18 C           4.1387    0.7588    0.1104 C.ar    1  UNL1       -0.0085
     19 C           5.4442    1.2468   -0.0261 C.ar    1  UNL1       -0.0534
     20 C           5.6657    2.5456   -0.4882 C.ar    1  UNL1       -0.0611
     21 C           4.5885    3.3665   -0.8173 C.ar    1  UNL1       -0.0611
     22 C           3.2797    2.8953   -0.6907 C.ar    1  UNL1       -0.0520
     23 C           3.0410    1.5953   -0.2288 C.ar    1  UNL1        0.0066
     24 C          -4.2500    0.6608   -0.3172 C.ar    1  UNL1        0.0009
     25 C          -4.8303    0.8503   -1.5734 C.ar    1  UNL1       -0.0511
     26 C          -6.1697    1.2214   -1.6636 C.ar    1  UNL1       -0.0430
     27 C          -6.8865    1.3889   -0.4892 C.ar    1  UNL1        0.0276
     28 N          -6.3628    1.2119    0.7430 N.ar    1  UNL1       -0.2627
     29 C          -5.0582    0.8495    0.8002 C.ar    1  UNL1        0.0353
     30 H          -2.3897   -4.1338   -0.3865 H       1  UNL1        0.0350
     31 H          -2.4720   -3.9006    1.3850 H       1  UNL1        0.0350
     32 H          -4.2324   -2.2790    0.1377 H       1  UNL1        0.0581
     33 H          -2.1460    2.2458   -0.5657 H       1  UNL1        0.0644
     34 H           0.4172    2.6567   -0.6183 H       1  UNL1        0.1659
     35 H           0.0038   -3.3933    0.4568 H       1  UNL1        0.0581
     36 H           1.6365   -2.8803    1.6518 H       1  UNL1        0.0581
     37 H           4.1592   -3.6123    1.0647 H       1  UNL1        0.0350
     38 H           4.0659   -2.8508    2.6806 H       1  UNL1        0.0350
     39 H           5.7482   -1.4421    1.1853 H       1  UNL1        0.0581
     40 H           6.3003    0.6279    0.2246 H       1  UNL1        0.0624
     41 H           6.6824    2.9170   -0.5907 H       1  UNL1        0.0618
     42 H           4.7685    4.3764   -1.1775 H       1  UNL1        0.0618
     43 H           2.4641    3.5562   -0.9639 H       1  UNL1        0.0624
     44 H          -4.2466    0.7035   -2.4786 H       1  UNL1        0.0625
     45 H          -6.6437    1.3730   -2.6268 H       1  UNL1        0.0633
     46 H          -7.9338    1.6772   -0.5093 H       1  UNL1        0.0829
     47 H          -4.6675    0.7106    1.8052 H       1  UNL1        0.0836
@<TRIPOS>BOND
     1     1     2    1
     2     2     3    2
     3     3     4   ar
     4     4     5   ar
     5     5     6   ar
     6     6     7   ar
     7     7     8   ar
     8     8     9   ar
     9     9    10   ar
    10    10    11   ar
    11    11    12    2
    12     9    13   ar
    13    13    14    2
    14    14    15    1
    15    15    16    1
    16    16    17    2
    17    17    18   ar
    18    18    19   ar
    19    19    20   ar
    20    20    21   ar
    21    21    22   ar
    22    22    23   ar
    23     4    24    1
    24    24    25   ar
    25    25    26   ar
    26    26    27   ar
    27    27    28   ar
    28    28    29   ar
    29    12     1    1
    30    17    13   ar
    31    23    18   ar
    32    29    24   ar
    33    11     3   ar
    34    10     6   ar
    35    23     8   ar
    36     1    30    1
    37     1    31    1
    38     2    32    1
    39     5    33    1
    40     7    34    1
    41    12    35    1
    42    14    36    1
    43    15    37    1
    44    15    38    1
    45    16    39    1
    46    19    40    1
    47    20    41    1
    48    21    42    1
    49    22    43    1
    50    25    44    1
    51    26    45    1
    52    27    46    1
    53    29    47    1
