@<TRIPOS>MOLECULE
*****
 48 55 0 0 0
SMALL
GASTEIGER

@<TRIPOS>ATOM
      1 C          -2.9767   -3.0269    1.5344 C.3     1  UNL1       -0.0148
      2 C          -3.6402   -1.7432    1.1401 C.2     1  UNL1       -0.0719
      3 C          -2.7196   -0.8742    0.6905 C.ar    1  UNL1       -0.0137
      4 C          -2.9302    0.4736    0.1316 C.ar    1  UNL1       -0.0122
      5 C          -1.8340    1.1468   -0.3036 C.ar    1  UNL1       -0.0298
      6 C          -0.5658    0.5143   -0.1704 C.ar    1  UNL1        0.0487
      7 N           0.5849    1.1080   -0.6102 N.ar    1  UNL1       -0.3536
      8 C           1.6775    0.3099   -0.3231 C.ar    1  UNL1        0.0567
      9 C           1.1331   -0.7955    0.3451 C.ar    1  UNL1        0.0193
     10 C           2.0747   -1.7393    0.8552 C.ar    1  UNL1        0.0302
     11 C           1.9302   -2.8399    1.6403 C.ar    1  UNL1        0.1001
     12 O           3.1717   -3.3810    1.8532 O.2     1  UNL1       -0.4698
     13 C           4.0799   -2.5816    1.2136 C.ar    1  UNL1        0.1000
     14 C           3.4445   -1.5284    0.5945 C.ar    1  UNL1        0.0283
     15 C           4.0667   -0.4803   -0.1121 C.ar    1  UNL1       -0.0045
     16 C           5.5010   -0.3474   -0.3391 C.ar    1  UNL1       -0.0526
     17 C           6.0909    0.7266   -1.0361 C.ar    1  UNL1       -0.0504
     18 C           5.1191    1.6188   -1.4641 C.ar    1  UNL1        0.0205
     19 C           5.3473    2.7668   -2.1731 C.ar    1  UNL1        0.0994
     20 O           4.1578    3.3854   -2.4267 O.2     1  UNL1       -0.4698
     21 C           3.1673    2.6202   -1.8721 C.ar    1  UNL1        0.1000
     22 C           3.7038    1.5168   -1.2555 C.ar    1  UNL1        0.0295
     23 C           3.0699    0.4701   -0.5683 C.ar    1  UNL1        0.0174
     24 C          -0.2632   -0.7247    0.3789 C.ar    1  UNL1        0.0155
     25 C          -1.3816   -1.4974    0.8026 C.ar    1  UNL1       -0.0115
     26 C          -1.5299   -2.7525    1.2440 C.2     1  UNL1       -0.0719
     27 C          -4.2241    1.1065   -0.0063 C.2     1  UNL1       -0.0359
     28 C          -4.6772    2.1883    0.6488 C.2     1  UNL1       -0.0580
     29 C          -6.0109    2.4962    0.2009 C.2     1  UNL1       -0.0651
     30 C          -6.3840    1.6095   -0.7328 C.2     1  UNL1       -0.0797
     31 C          -5.2775    0.6180   -0.9660 C.3     1  UNL1       -0.0086
     32 H          -3.1318   -3.2441    2.5953 H       1  UNL1        0.0350
     33 H          -3.3466   -3.8605    0.9299 H       1  UNL1        0.0350
     34 H          -4.7049   -1.5772    1.1912 H       1  UNL1        0.0581
     35 H          -1.9137    2.1376   -0.7406 H       1  UNL1        0.0644
     36 H           0.6273    2.0110   -1.0542 H       1  UNL1        0.1659
     37 H           1.1270   -3.3536    2.1386 H       1  UNL1        0.1036
     38 H           5.1089   -2.8943    1.3172 H       1  UNL1        0.1036
     39 H           6.1666   -1.1177    0.0495 H       1  UNL1        0.0624
     40 H           7.1548    0.8184   -1.2018 H       1  UNL1        0.0625
     41 H           6.2251    3.2644   -2.5605 H       1  UNL1        0.1035
     42 H           2.1765    3.0162   -2.0239 H       1  UNL1        0.1036
     43 H          -0.7686   -3.4996    1.3598 H       1  UNL1        0.0581
     44 H          -4.1460    2.7535    1.3995 H       1  UNL1        0.0620
     45 H          -6.6012    3.3194    0.5736 H       1  UNL1        0.0615
     46 H          -7.3342    1.5961   -1.2445 H       1  UNL1        0.0575
     47 H          -4.9289    0.6624   -2.0027 H       1  UNL1        0.0356
     48 H          -5.6155   -0.3955   -0.7327 H       1  UNL1        0.0356
@<TRIPOS>BOND
     1     1     2    1
     2     2     3    2
     3     3     4   ar
     4     4     5   ar
     5     5     6   ar
     6     6     7   ar
     7     7     8   ar
     8     8     9   ar
     9     9    10   ar
    10    10    11   ar
    11    11    12   ar
    12    12    13   ar
    13    13    14   ar
    14    14    15   ar
    15    15    16   ar
    16    16    17   ar
    17    17    18   ar
    18    18    19   ar
    19    19    20   ar
    20    20    21   ar
    21    21    22   ar
    22    22    23   ar
    23     9    24   ar
    24    24    25   ar
    25    25    26    2
    26     4    27    1
    27    27    28    2
    28    28    29    1
    29    29    30    2
    30    30    31    1
    31    26     1    1
    32    31    27    1
    33    25     3   ar
    34    24     6   ar
    35    23     8   ar
    36    14    10   ar
    37    23    15   ar
    38    22    18   ar
    39     1    32    1
    40     1    33    1
    41     2    34    1
    42     5    35    1
    43     7    36    1
    44    11    37    1
    45    13    38    1
    46    16    39    1
    47    17    40    1
    48    19    41    1
    49    21    42    1
    50    26    43    1
    51    28    44    1
    52    29    45    1
    53    30    46    1
    54    31    47    1
    55    31    48    1
