@<TRIPOS>MOLECULE
*****
 46 53 0 0 0
SMALL
GASTEIGER

@<TRIPOS>ATOM
      1 C          -3.1995   -3.2508   -0.7534 C.3     1  UNL1       -0.0148
      2 C          -3.8740   -1.9492   -0.4466 C.2     1  UNL1       -0.0718
      3 C          -2.9579   -1.0036   -0.1730 C.ar    1  UNL1       -0.0104
      4 C          -3.1525    0.4445    0.0627 C.ar    1  UNL1        0.0286
      5 C          -2.0337    1.2164    0.1335 C.ar    1  UNL1       -0.0265
      6 C          -0.7672    0.5721    0.0555 C.ar    1  UNL1        0.0488
      7 N           0.4062    1.2731    0.0853 N.ar    1  UNL1       -0.3536
      8 C           1.4846    0.4061    0.0597 C.ar    1  UNL1        0.0566
      9 C           0.9074   -0.8673    0.0741 C.ar    1  UNL1        0.0168
     10 C           1.8028   -1.9783    0.2197 C.ar    1  UNL1       -0.0005
     11 C           1.4451   -3.2715    0.4660 C.ar    1  UNL1       -0.0159
     12 S           2.8487   -4.2572    0.5607 S.2     1  UNL1       -0.1038
     13 C           3.8918   -2.9015    0.3563 C.ar    1  UNL1       -0.0160
     14 C           3.2030   -1.7118    0.2160 C.ar    1  UNL1       -0.0024
     15 C           3.8518   -0.4516    0.1130 C.ar    1  UNL1       -0.0070
     16 C           5.2995   -0.2397    0.1024 C.ar    1  UNL1       -0.0527
     17 C           5.9235    1.0233    0.0295 C.ar    1  UNL1       -0.0504
     18 C           4.9713    2.0272   -0.0313 C.ar    1  UNL1        0.0205
     19 C           5.2316    3.3678   -0.1188 C.ar    1  UNL1        0.0994
     20 O           4.0536    4.0535   -0.1756 O.2     1  UNL1       -0.4698
     21 C           3.0393    3.1357   -0.1239 C.ar    1  UNL1        0.1000
     22 C           3.5482    1.8638   -0.0227 C.ar    1  UNL1        0.0295
     23 C           2.8850    0.6275    0.0506 C.ar    1  UNL1        0.0174
     24 C          -0.4850   -0.7803   -0.0562 C.ar    1  UNL1        0.0154
     25 C          -1.6139   -1.6253   -0.2499 C.ar    1  UNL1       -0.0114
     26 C          -1.7471   -2.9010   -0.6364 C.2     1  UNL1       -0.0719
     27 C          -4.4719    1.1178    0.2090 C.ar    1  UNL1        0.1636
     28 N          -4.5501    2.4163   -0.1129 N.ar    1  UNL1       -0.2160
     29 C          -5.7526    2.9613    0.0519 C.ar    1  UNL1        0.1200
     30 N          -6.8380    2.3425    0.5050 N.ar    1  UNL1       -0.2241
     31 C          -6.6396    1.0619    0.8014 C.ar    1  UNL1        0.1200
     32 N          -5.4948    0.3965    0.6770 N.ar    1  UNL1       -0.2160
     33 H          -3.4405   -3.5850   -1.7669 H       1  UNL1        0.0350
     34 H          -3.4808   -4.0250   -0.0337 H       1  UNL1        0.0350
     35 H          -4.9427   -1.8110   -0.5024 H       1  UNL1        0.0581
     36 H          -2.0855    2.2900    0.2887 H       1  UNL1        0.0645
     37 H           0.4702    2.2763    0.1476 H       1  UNL1        0.1659
     38 H           0.4788   -3.7140    0.6346 H       1  UNL1        0.0700
     39 H           4.9567   -3.0789    0.3802 H       1  UNL1        0.0700
     40 H           5.9583   -1.1055    0.1552 H       1  UNL1        0.0624
     41 H           6.9953    1.1604    0.0212 H       1  UNL1        0.0625
     42 H           6.1269    3.9720   -0.1563 H       1  UNL1        0.1035
     43 H           2.0561    3.5738   -0.1776 H       1  UNL1        0.1036
     44 H          -0.9608   -3.5878   -0.8965 H       1  UNL1        0.0581
     45 H          -5.8563    4.0097   -0.2063 H       1  UNL1        0.1048
     46 H          -7.4911    0.5068    1.1801 H       1  UNL1        0.1048
@<TRIPOS>BOND
     1     1     2    1
     2     2     3    2
     3     3     4   ar
     4     4     5   ar
     5     5     6   ar
     6     6     7   ar
     7     7     8   ar
     8     8     9   ar
     9     9    10   ar
    10    10    11   ar
    11    11    12   ar
    12    12    13   ar
    13    13    14   ar
    14    14    15   ar
    15    15    16   ar
    16    16    17   ar
    17    17    18   ar
    18    18    19   ar
    19    19    20   ar
    20    20    21   ar
    21    21    22   ar
    22    22    23   ar
    23     9    24   ar
    24    24    25   ar
    25    25    26    2
    26     4    27    1
    27    27    28   ar
    28    28    29   ar
    29    29    30   ar
    30    30    31   ar
    31    31    32   ar
    32    26     1    1
    33    32    27   ar
    34    25     3   ar
    35    24     6   ar
    36    23     8   ar
    37    14    10   ar
    38    23    15   ar
    39    22    18   ar
    40     1    33    1
    41     1    34    1
    42     2    35    1
    43     5    36    1
    44     7    37    1
    45    11    38    1
    46    13    39    1
    47    16    40    1
    48    17    41    1
    49    19    42    1
    50    21    43    1
    51    26    44    1
    52    29    45    1
    53    31    46    1
