@<TRIPOS>MOLECULE
*****
 42 48 0 0 0
SMALL
GASTEIGER

@<TRIPOS>ATOM
      1 C           1.2559   -1.5064   -3.0121 C.3     1  UNL1        0.0000
      2 C           1.9408   -0.5555   -2.0683 C.2     1  UNL1        0.0000
      3 C           1.0628   -0.1101   -1.1536 C.ar    1  UNL1        0.0000
      4 C           1.2675    0.8341   -0.0369 C.ar    1  UNL1        0.0000
      5 C           0.2032    1.1360    0.7574 C.ar    1  UNL1        0.0000
      6 C          -1.0449    0.5198    0.4498 C.ar    1  UNL1        0.0000
      7 N          -2.1994    0.7448    1.1713 N.ar    1  UNL1        0.0000
      8 C          -3.1634   -0.0061    0.5916 C.ar    1  UNL1        0.0000
      9 C          -2.6631   -0.7141   -0.4924 C.ar    1  UNL1        0.0000
     10 C          -3.7308   -1.5600   -1.1558 C.3     1  UNL1        0.0000
     11 C          -4.8995   -1.1968   -0.2530 C.ar    1  UNL1        0.0000
     12 C          -6.2631   -1.4643   -0.0735 C.ar    1  UNL1        0.0000
     13 C          -6.6630   -0.7126    1.0266 C.ar    1  UNL1        0.0000
     14 N          -5.5788    0.0009    1.5157 N.ar    1  UNL1        0.0000
     15 C          -4.5269   -0.3034    0.7337 C.ar    1  UNL1        0.0000
     16 C          -1.3166   -0.3796   -0.5828 C.ar    1  UNL1        0.0000
     17 C          -0.2425   -0.7265   -1.4327 C.ar    1  UNL1        0.0000
     18 C          -0.1543   -1.5341   -2.4951 C.2     1  UNL1        0.0000
     19 C           2.5265    1.4285    0.2948 C.ar    1  UNL1        0.0000
     20 S           2.8074    3.1232   -0.0056 S.2     1  UNL1        0.0000
     21 C           4.4257    3.0693    0.5889 C.ar    1  UNL1        0.0000
     22 C           4.7192    1.8031    0.9875 C.ar    1  UNL1        0.0000
     23 SI          6.2106    0.9209    1.7213 Si      1  UNL1        0.0000
     24 C           5.1813   -0.6906    1.7274 C.2     1  UNL1        0.0000
     25 C           3.9390   -0.4835    1.2377 C.2     1  UNL1        0.0000
     26 C           3.6649    0.8643    0.8279 C.ar    1  UNL1        0.0000
     27 H           1.7112   -2.5001   -2.9663 H       1  UNL1        0.0000
     28 H           1.2905   -1.1318   -4.0394 H       1  UNL1        0.0000
     29 H           2.9825   -0.2803   -2.1346 H       1  UNL1        0.0000
     30 H           0.2898    1.8105    1.6031 H       1  UNL1        0.0000
     31 H          -2.2999    1.3523    1.9722 H       1  UNL1        0.0000
     32 H          -3.4951   -2.6255   -1.0956 H       1  UNL1        0.0000
     33 H          -3.9097   -1.2461   -2.1873 H       1  UNL1        0.0000
     34 H          -6.8962   -2.1176   -0.6587 H       1  UNL1        0.0000
     35 H          -7.6279   -0.6214    1.5069 H       1  UNL1        0.0000
     36 H          -5.5888    0.6276    2.3087 H       1  UNL1        0.0000
     37 H          -0.9577   -2.1116   -2.9233 H       1  UNL1        0.0000
     38 H           5.0385    3.9603    0.5994 H       1  UNL1        0.0000
     39 H           6.5441    1.3449    3.1041 H       1  UNL1        0.0000
     40 H           7.3653    0.8113    0.7954 H       1  UNL1        0.0000
     41 H           5.5995   -1.6154    2.0904 H       1  UNL1        0.0000
     42 H           3.1952   -1.2686    1.1553 H       1  UNL1        0.0000
@<TRIPOS>BOND
     1     1     2    1
     2     2     3    2
     3     3     4   ar
     4     4     5   ar
     5     5     6   ar
     6     6     7   ar
     7     7     8   ar
     8     8     9   ar
     9     9    10    1
    10    10    11    1
    11    11    12   ar
    12    12    13   ar
    13    13    14   ar
    14    14    15   ar
    15     9    16   ar
    16    16    17   ar
    17    17    18    2
    18     4    19    1
    19    19    20   ar
    20    20    21   ar
    21    21    22   ar
    22    22    23    1
    23    23    24    1
    24    24    25    2
    25    25    26    1
    26    18     1    1
    27    26    19   ar
    28    17     3   ar
    29    26    22   ar
    30    16     6   ar
    31     8    15    1
    32    15    11   ar
    33     1    27    1
    34     1    28    1
    35     2    29    1
    36     5    30    1
    37     7    31    1
    38    10    32    1
    39    10    33    1
    40    12    34    1
    41    13    35    1
    42    14    36    1
    43    18    37    1
    44    21    38    1
    45    23    39    1
    46    23    40    1
    47    24    41    1
    48    25    42    1
