@<TRIPOS>MOLECULE
*****
 38 43 0 0 0
SMALL
GASTEIGER

@<TRIPOS>ATOM
      1 C          -2.2540   -2.4416    2.2327 C.3     1  UNL1       -0.0148
      2 C          -2.9758   -1.5307    1.2781 C.2     1  UNL1       -0.0718
      3 C          -2.0951   -0.7492    0.6283 C.ar    1  UNL1       -0.0104
      4 C          -2.3226    0.2841   -0.4075 C.ar    1  UNL1        0.0266
      5 C          -1.2290    0.8792   -0.9598 C.ar    1  UNL1       -0.0265
      6 C           0.0534    0.4901   -0.4820 C.ar    1  UNL1        0.0488
      7 N           1.2248    1.0216   -0.9463 N.ar    1  UNL1       -0.3525
      8 C           2.2535    0.4318   -0.2665 C.ar    1  UNL1        0.0717
      9 C           1.7608   -0.4911    0.6458 C.ar    1  UNL1        0.0100
     10 C           2.7052   -1.1909    1.4309 C.ar    1  UNL1       -0.0513
     11 C           4.1119   -0.9755    1.3103 C.ar    1  UNL1       -0.0519
     12 C           4.6552   -0.0474    0.3963 C.ar    1  UNL1        0.0017
     13 C           5.9530    0.3973    0.0321 C.ar    1  UNL1       -0.0366
     14 C           5.8087    1.3507   -0.9576 C.ar    1  UNL1        0.0028
     15 N           4.4663    1.5027   -1.2097 N.ar    1  UNL1       -0.3590
     16 C           3.7735    0.6617   -0.3946 C.ar    1  UNL1        0.0707
     17 C           0.3571   -0.4438    0.4965 C.ar    1  UNL1        0.0149
     18 C          -0.7418   -1.1127    1.0920 C.ar    1  UNL1       -0.0114
     19 C          -0.8159   -2.0760    2.0177 C.2     1  UNL1       -0.0719
     20 C          -3.5995    0.7398   -0.8827 C.ar    1  UNL1        0.1354
     21 C          -4.8059    0.8942   -0.2037 C.ar    1  UNL1       -0.0159
     22 C          -5.7710    1.3836   -1.1152 C.ar    1  UNL1       -0.0233
     23 C          -5.1172    1.5200   -2.3110 C.ar    1  UNL1        0.0926
     24 O          -3.8210    1.1504   -2.1861 O.2     1  UNL1       -0.4629
     25 H          -2.5600   -2.2505    3.2654 H       1  UNL1        0.0350
     26 H          -2.4338   -3.4915    1.9833 H       1  UNL1        0.0350
     27 H          -4.0458   -1.5426    1.1464 H       1  UNL1        0.0581
     28 H          -1.3183    1.6451   -1.7242 H       1  UNL1        0.0645
     29 H           1.3149    1.7255   -1.6641 H       1  UNL1        0.1660
     30 H           2.3579   -1.9217    2.1565 H       1  UNL1        0.0624
     31 H           4.7820   -1.5490    1.9466 H       1  UNL1        0.0624
     32 H           6.8925    0.0580    0.4474 H       1  UNL1        0.0638
     33 H           6.5423    1.9304   -1.5012 H       1  UNL1        0.0807
     34 H           4.0654    2.1343   -1.8882 H       1  UNL1        0.1654
     35 H           0.0144   -2.5423    2.5222 H       1  UNL1        0.0581
     36 H          -4.9624    0.6874    0.8459 H       1  UNL1        0.0655
     37 H          -6.8087    1.6140   -0.9207 H       1  UNL1        0.0649
     38 H          -5.4150    1.8548   -3.2948 H       1  UNL1        0.1029
@<TRIPOS>BOND
     1     1     2    1
     2     2     3    2
     3     3     4   ar
     4     4     5   ar
     5     5     6   ar
     6     6     7   ar
     7     7     8   ar
     8     8     9   ar
     9     9    10   ar
    10    10    11   ar
    11    11    12   ar
    12    12    13   ar
    13    13    14   ar
    14    14    15   ar
    15    15    16   ar
    16     9    17   ar
    17    17    18   ar
    18    18    19    2
    19     4    20    1
    20    20    21   ar
    21    21    22   ar
    22    22    23   ar
    23    23    24   ar
    24    19     1    1
    25    24    20   ar
    26    18     3   ar
    27    17     6   ar
    28    16     8   ar
    29    16    12   ar
    30     1    25    1
    31     1    26    1
    32     2    27    1
    33     5    28    1
    34     7    29    1
    35    10    30    1
    36    11    31    1
    37    13    32    1
    38    14    33    1
    39    15    34    1
    40    19    35    1
    41    21    36    1
    42    22    37    1
    43    23    38    1
