@<TRIPOS>MOLECULE
*****
 45 52 0 0 0
SMALL
GASTEIGER

@<TRIPOS>ATOM
      1 SI         -1.5744   -2.9234    2.6107 Si      1  UNL1        0.0000
      2 C          -2.4886   -2.0118    1.2767 C.2     1  UNL1        0.0000
      3 C          -1.6719   -1.2048    0.5648 C.ar    1  UNL1        0.0000
      4 C          -2.1212   -0.3705   -0.5514 C.ar    1  UNL1        0.0000
      5 C          -1.2023    0.3767   -1.1964 C.ar    1  UNL1        0.0000
      6 C           0.2135    0.3688   -0.8158 C.ar    1  UNL1        0.0000
      7 C           1.1660    1.1377   -1.4911 C.ar    1  UNL1        0.0000
      8 C           0.9816    1.9761   -2.5656 C.ar    1  UNL1        0.0000
      9 N           2.2096    2.5133   -2.8840 N.ar    1  UNL1        0.0000
     10 C           3.1709    2.0291   -2.0267 C.ar    1  UNL1        0.0000
     11 C           2.5473    1.1718   -1.1525 C.ar    1  UNL1        0.0000
     12 C           3.1119    0.4408   -0.1040 C.ar    1  UNL1        0.0000
     13 C           4.4504    0.4345    0.2752 C.ar    1  UNL1        0.0000
     14 O           5.4839    1.1304   -0.2877 O.2     1  UNL1        0.0000
     15 C           6.6076    0.8171    0.4062 C.ar    1  UNL1        0.0000
     16 C           6.3195   -0.0730    1.4135 C.ar    1  UNL1        0.0000
     17 C           4.9246   -0.3244    1.3339 C.ar    1  UNL1        0.0000
     18 C           4.0069   -1.1001    2.0276 C.ar    1  UNL1        0.0000
     19 N           2.6948   -1.1011    1.6651 N.ar    1  UNL1        0.0000
     20 C           2.1973   -0.3717    0.6338 C.ar    1  UNL1        0.0000
     21 C           0.7824   -0.3974    0.2711 C.ar    1  UNL1        0.0000
     22 C          -0.2417   -1.2352    0.9960 C.ar    1  UNL1        0.0000
     23 C          -0.0268   -2.0681    2.0379 C.2     1  UNL1        0.0000
     24 C          -3.4764   -0.2490   -0.9893 C.ar    1  UNL1        0.0000
     25 S          -4.0105   -0.8944   -2.5329 S.2     1  UNL1        0.0000
     26 C          -5.6560   -0.3944   -2.3094 C.ar    1  UNL1        0.0000
     27 C          -5.7361    0.2147   -1.1139 C.ar    1  UNL1        0.0000
     28 O          -6.8526    0.7512   -0.5513 O.2     1  UNL1        0.0000
     29 C          -6.3140    1.2102    0.6381 C.ar    1  UNL1        0.0000
     30 C          -4.9427    0.9615    0.7816 C.ar    1  UNL1        0.0000
     31 C          -4.5686    0.2947   -0.3985 C.ar    1  UNL1        0.0000
     32 H          -1.5452   -4.3882    2.3806 H       1  UNL1        0.0000
     33 H          -1.9957   -2.5027    3.9693 H       1  UNL1        0.0000
     34 H          -3.5476   -2.1609    1.1374 H       1  UNL1        0.0000
     35 H          -1.4971    1.0228   -2.0165 H       1  UNL1        0.0000
     36 H           0.1087    2.2492   -3.1423 H       1  UNL1        0.0000
     37 H           2.3809    3.1671   -3.6374 H       1  UNL1        0.0000
     38 H           4.2006    2.3447   -2.1285 H       1  UNL1        0.0000
     39 H           7.5142    1.2996    0.0681 H       1  UNL1        0.0000
     40 H           7.0262   -0.4889    2.1174 H       1  UNL1        0.0000
     41 H           4.2708   -1.7293    2.8698 H       1  UNL1        0.0000
     42 H           0.9001   -2.2836    2.5402 H       1  UNL1        0.0000
     43 H          -6.4393   -0.5688   -3.0319 H       1  UNL1        0.0000
     44 H          -7.0331    1.6956    1.2850 H       1  UNL1        0.0000
     45 H          -4.3276    1.2339    1.6273 H       1  UNL1        0.0000
@<TRIPOS>BOND
     1     1     2    1
     2     2     3    2
     3     3     4   ar
     4     4     5   ar
     5     5     6   ar
     6     6     7   ar
     7     7     8   ar
     8     8     9   ar
     9     9    10   ar
    10    10    11   ar
    11    11    12   ar
    12    12    13   ar
    13    13    14   ar
    14    14    15   ar
    15    15    16   ar
    16    16    17   ar
    17    17    18   ar
    18    18    19   ar
    19    19    20   ar
    20    20    21   ar
    21    21    22   ar
    22    22    23    2
    23     4    24    1
    24    24    25   ar
    25    25    26   ar
    26    26    27   ar
    27    27    28   ar
    28    28    29   ar
    29    29    30   ar
    30    30    31   ar
    31    23     1    1
    32    31    24   ar
    33    22     3   ar
    34    31    27   ar
    35    21     6   ar
    36    11     7   ar
    37    20    12   ar
    38    17    13   ar
    39     1    32    1
    40     1    33    1
    41     2    34    1
    42     5    35    1
    43     8    36    1
    44     9    37    1
    45    10    38    1
    46    15    39    1
    47    16    40    1
    48    18    41    1
    49    23    42    1
    50    26    43    1
    51    29    44    1
    52    30    45    1
