@<TRIPOS>MOLECULE
*****
 35 40 0 0 0
SMALL
GASTEIGER

@<TRIPOS>ATOM
      1 C           1.8670   -0.0552   -3.4797 C.3     1  UNL1       -0.0148
      2 C           2.7608   -0.0086   -2.2690 C.2     1  UNL1       -0.0719
      3 C           2.0150    0.0162   -1.1510 C.ar    1  UNL1       -0.0128
      4 C           2.4380    0.0550    0.2667 C.ar    1  UNL1       -0.0004
      5 C           1.4704    0.0591    1.2273 C.ar    1  UNL1       -0.0289
      6 C           0.1123    0.0186    0.7968 C.ar    1  UNL1        0.0492
      7 N          -0.9478    0.0140    1.6534 N.ar    1  UNL1       -0.3520
      8 C          -2.0968   -0.0267    0.8882 C.ar    1  UNL1        0.0810
      9 C          -3.4914   -0.0521    1.1101 C.ar    1  UNL1        0.1019
     10 N          -4.0470   -0.0380    2.3461 N.ar    1  UNL1       -0.2524
     11 C          -5.3964   -0.0671    2.3443 C.ar    1  UNL1        0.0284
     12 C          -6.1977   -0.1082    1.2127 C.ar    1  UNL1       -0.0425
     13 C          -5.5980   -0.1217   -0.0462 C.ar    1  UNL1       -0.0444
     14 C          -4.1967   -0.0924   -0.0886 C.ar    1  UNL1        0.0402
     15 S          -3.1552   -0.0990   -1.4690 S.2     1  UNL1       -0.0845
     16 C          -1.7605   -0.0472   -0.4412 C.ar    1  UNL1        0.0478
     17 C          -0.3498   -0.0179   -0.5042 C.ar    1  UNL1        0.0215
     18 C           0.5978   -0.0209   -1.5469 C.ar    1  UNL1       -0.0110
     19 C           0.4905   -0.0592   -2.8790 C.2     1  UNL1       -0.0719
     20 C           3.8008    0.1313    0.6941 C.ar    1  UNL1        0.0394
     21 C           4.7577    1.0969    0.4222 C.ar    1  UNL1        0.0425
     22 N           6.0147    0.8895    0.9584 N.ar    1  UNL1       -0.2551
     23 C           6.0108   -0.2394    1.6295 C.ar    1  UNL1        0.0652
     24 S           4.5315   -1.1019    1.6586 S.2     1  UNL1       -0.0754
     25 H           2.0441   -0.9639   -4.0625 H       1  UNL1        0.0350
     26 H           2.0179    0.8244   -4.1125 H       1  UNL1        0.0350
     27 H           3.8390   -0.0052   -2.3195 H       1  UNL1        0.0581
     28 H           1.7039    0.1065    2.2865 H       1  UNL1        0.0645
     29 H          -0.9631    0.0345    2.6667 H       1  UNL1        0.1660
     30 H          -5.8496   -0.0560    3.3332 H       1  UNL1        0.0830
     31 H          -7.2786   -0.1294    1.3078 H       1  UNL1        0.0633
     32 H          -6.1898   -0.1536   -0.9548 H       1  UNL1        0.0630
     33 H          -0.4272   -0.0947   -3.4447 H       1  UNL1        0.0581
     34 H           4.5823    1.9868   -0.1712 H       1  UNL1        0.0841
     35 H           6.8911   -0.6111    2.1375 H       1  UNL1        0.0907
@<TRIPOS>BOND
     1     1     2    1
     2     2     3    2
     3     3     4   ar
     4     4     5   ar
     5     5     6   ar
     6     6     7   ar
     7     7     8   ar
     8     8     9   ar
     9     9    10   ar
    10    10    11   ar
    11    11    12   ar
    12    12    13   ar
    13    13    14   ar
    14    14    15   ar
    15    15    16   ar
    16    16    17   ar
    17    17    18   ar
    18    18    19    2
    19     4    20    1
    20    20    21   ar
    21    21    22   ar
    22    22    23   ar
    23    23    24   ar
    24    19     1    1
    25    24    20   ar
    26    18     3   ar
    27    17     6   ar
    28    16     8   ar
    29    14     9   ar
    30     1    25    1
    31     1    26    1
    32     2    27    1
    33     5    28    1
    34     7    29    1
    35    11    30    1
    36    12    31    1
    37    13    32    1
    38    19    33    1
    39    21    34    1
    40    23    35    1
