@<TRIPOS>MOLECULE
*****
 40 46 0 0 0
SMALL
GASTEIGER

@<TRIPOS>ATOM
      1 C          -1.9176   -3.1843   -0.6160 C.3     1  UNL1       -0.0148
      2 C          -2.6748   -1.8892   -0.5797 C.2     1  UNL1       -0.0719
      3 C          -1.8273   -0.8697   -0.3597 C.ar    1  UNL1       -0.0137
      4 C          -2.1242    0.5732   -0.2632 C.ar    1  UNL1       -0.0122
      5 C          -1.0742    1.4198   -0.0932 C.ar    1  UNL1       -0.0298
      6 C           0.2301    0.8572   -0.0009 C.ar    1  UNL1        0.0487
      7 N           1.3497    1.6302    0.1814 N.ar    1  UNL1       -0.3532
      8 C           2.4322    0.7972    0.2380 C.ar    1  UNL1        0.0642
      9 C           3.9207    1.1309    0.4289 C.ar    1  UNL1        0.0454
     10 S           4.6406    2.6472    0.6236 S.2     1  UNL1       -0.0945
     11 C           6.2108    1.9323    0.7445 C.ar    1  UNL1       -0.0230
     12 C           6.1756    0.5527    0.6367 C.ar    1  UNL1       -0.0448
     13 C           4.8473    0.1274    0.4565 C.ar    1  UNL1        0.0194
     14 C           4.3732   -1.2163    0.3032 C.ar    1  UNL1        0.1088
     15 N           5.2154   -2.2468    0.3209 N.ar    1  UNL1       -0.1901
     16 S           4.1978   -3.5765    0.1097 S.2     1  UNL1        0.1165
     17 N           2.6973   -2.8165   -0.0011 N.ar    1  UNL1       -0.1901
     18 C           2.9835   -1.5259    0.1249 C.ar    1  UNL1        0.1102
     19 C           1.9884   -0.4971    0.0904 C.ar    1  UNL1        0.0372
     20 C           0.6012   -0.4864   -0.0639 C.ar    1  UNL1        0.0170
     21 C          -0.4574   -1.4141   -0.2581 C.ar    1  UNL1       -0.0114
     22 C          -0.5007   -2.7443   -0.3986 C.2     1  UNL1       -0.0719
     23 C          -3.4580    1.1348   -0.3145 C.2     1  UNL1       -0.0359
     24 C          -3.9540    1.9812   -1.2327 C.2     1  UNL1       -0.0580
     25 C          -5.3163    2.3080   -0.8984 C.2     1  UNL1       -0.0651
     26 C          -5.6651    1.6692    0.2273 C.2     1  UNL1       -0.0797
     27 C          -4.5106    0.8431    0.7237 C.3     1  UNL1       -0.0086
     28 H          -2.2488   -3.8566    0.1808 H       1  UNL1        0.0350
     29 H          -2.0311   -3.6782   -1.5856 H       1  UNL1        0.0350
     30 H          -3.7408   -1.8143   -0.7259 H       1  UNL1        0.0581
     31 H          -1.2178    2.4924   -0.0060 H       1  UNL1        0.0644
     32 H           1.3773    2.6380    0.2627 H       1  UNL1        0.1659
     33 H           7.0767    2.5642    0.8886 H       1  UNL1        0.0694
     34 H           7.0509   -0.0836    0.6864 H       1  UNL1        0.0630
     35 H           0.3340   -3.4239   -0.3808 H       1  UNL1        0.0581
     36 H          -3.4345    2.3685   -2.0962 H       1  UNL1        0.0620
     37 H          -5.9418    2.9690   -1.4791 H       1  UNL1        0.0615
     38 H          -6.6276    1.7276    0.7126 H       1  UNL1        0.0575
     39 H          -4.1961    1.1748    1.7184 H       1  UNL1        0.0356
     40 H          -4.7841   -0.2150    0.7565 H       1  UNL1        0.0356
@<TRIPOS>BOND
     1     1     2    1
     2     2     3    2
     3     3     4   ar
     4     4     5   ar
     5     5     6   ar
     6     6     7   ar
     7     7     8   ar
     8     8     9   ar
     9     9    10   ar
    10    10    11   ar
    11    11    12   ar
    12    12    13   ar
    13    13    14   ar
    14    14    15   ar
    15    15    16   ar
    16    16    17   ar
    17    17    18   ar
    18    18    19   ar
    19    19    20   ar
    20    20    21   ar
    21    21    22    2
    22     4    23    1
    23    23    24    2
    24    24    25    1
    25    25    26    2
    26    26    27    1
    27    22     1    1
    28    27    23    1
    29    21     3   ar
    30    20     6   ar
    31    19     8   ar
    32    13     9   ar
    33    18    14   ar
    34     1    28    1
    35     1    29    1
    36     2    30    1
    37     5    31    1
    38     7    32    1
    39    11    33    1
    40    12    34    1
    41    22    35    1
    42    24    36    1
    43    25    37    1
    44    26    38    1
    45    27    39    1
    46    27    40    1
