@<TRIPOS>MOLECULE
*****
 38 43 0 0 0
SMALL
GASTEIGER

@<TRIPOS>ATOM
      1 C          -1.2477    3.0225   -1.8426 C.3     1  UNL1       -0.0148
      2 C          -2.4382    2.1936   -1.4467 C.2     1  UNL1       -0.0719
      3 C          -2.0319    1.1047   -0.7715 C.ar    1  UNL1       -0.0128
      4 C          -2.8351    0.0151   -0.1810 C.ar    1  UNL1       -0.0004
      5 C          -2.1757   -0.9794    0.4745 C.ar    1  UNL1       -0.0289
      6 C          -0.7564   -0.8915    0.5480 C.ar    1  UNL1        0.0487
      7 N           0.0217   -1.8169    1.1771 N.ar    1  UNL1       -0.3541
      8 C           1.3539   -1.4545    1.0725 C.ar    1  UNL1        0.0481
      9 C           2.4924   -2.1106    1.5692 C.ar    1  UNL1       -0.0304
     10 C           3.7090   -1.5011    1.3048 C.ar    1  UNL1       -0.0199
     11 C           5.0466   -1.9301    1.6810 C.2     1  UNL1       -0.0579
     12 C           5.9156   -1.0235    1.2062 C.2     1  UNL1       -0.0791
     13 C           5.2348    0.1015    0.4646 C.3     1  UNL1       -0.0086
     14 C           3.7977   -0.3056    0.5871 C.ar    1  UNL1       -0.0358
     15 C           2.6711    0.3434    0.0958 C.ar    1  UNL1       -0.0479
     16 C           1.4125   -0.2480    0.3455 C.ar    1  UNL1        0.0083
     17 C           0.0721    0.0845    0.0276 C.ar    1  UNL1        0.0148
     18 C          -0.5628    1.1455   -0.6695 C.ar    1  UNL1       -0.0115
     19 C          -0.0956    2.2395   -1.2823 C.2     1  UNL1       -0.0719
     20 C          -4.2574   -0.0863   -0.2898 C.ar    1  UNL1        0.0394
     21 C          -5.0515   -0.1744   -1.4229 C.ar    1  UNL1        0.0425
     22 N          -6.4168   -0.2374   -1.2172 N.ar    1  UNL1       -0.2551
     23 C          -6.6564   -0.1864    0.0731 C.ar    1  UNL1        0.0652
     24 S          -5.2885   -0.0656    1.0964 S.2     1  UNL1       -0.0754
     25 H          -1.1734    3.1082   -2.9307 H       1  UNL1        0.0350
     26 H          -1.2987    4.0201   -1.3966 H       1  UNL1        0.0350
     27 H          -3.4583    2.4614   -1.6763 H       1  UNL1        0.0581
     28 H          -2.6940   -1.8241    0.9175 H       1  UNL1        0.0645
     29 H          -0.3077   -2.6453    1.6517 H       1  UNL1        0.1659
     30 H           2.4244   -3.0373    2.1257 H       1  UNL1        0.0644
     31 H           5.2707   -2.8226    2.2419 H       1  UNL1        0.0621
     32 H           6.9874   -1.0791    1.3328 H       1  UNL1        0.0575
     33 H           5.4207    1.0614    0.9547 H       1  UNL1        0.0356
     34 H           5.5538    0.1296   -0.5811 H       1  UNL1        0.0356
     35 H           2.7592    1.2697   -0.4587 H       1  UNL1        0.0627
     36 H           0.9369    2.5354   -1.3664 H       1  UNL1        0.0581
     37 H          -4.6735   -0.1988   -2.4385 H       1  UNL1        0.0841
     38 H          -7.6609   -0.2173    0.4745 H       1  UNL1        0.0907
@<TRIPOS>BOND
     1     1     2    1
     2     2     3    2
     3     3     4   ar
     4     4     5   ar
     5     5     6   ar
     6     6     7   ar
     7     7     8   ar
     8     8     9   ar
     9     9    10   ar
    10    10    11    1
    11    11    12    2
    12    12    13    1
    13    13    14    1
    14    14    15   ar
    15    15    16   ar
    16    16    17   ar
    17    17    18   ar
    18    18    19    2
    19     4    20    1
    20    20    21   ar
    21    21    22   ar
    22    22    23   ar
    23    23    24   ar
    24    19     1    1
    25    24    20   ar
    26    18     3   ar
    27    17     6   ar
    28    16     8   ar
    29    14    10   ar
    30     1    25    1
    31     1    26    1
    32     2    27    1
    33     5    28    1
    34     7    29    1
    35     9    30    1
    36    11    31    1
    37    12    32    1
    38    13    33    1
    39    13    34    1
    40    15    35    1
    41    19    36    1
    42    21    37    1
    43    23    38    1
