@<TRIPOS>MOLECULE
*****
 47 54 0 0 0
SMALL
GASTEIGER

@<TRIPOS>ATOM
      1 C           1.5437   -1.5792    3.1746 C.3     1  UNL1       -0.0148
      2 C           2.6221   -0.9757    2.3190 C.2     1  UNL1       -0.0719
      3 C           2.0728   -0.3416    1.2687 C.ar    1  UNL1       -0.0128
      4 C           2.7272    0.3884    0.1623 C.ar    1  UNL1        0.0002
      5 C           1.9332    0.9062   -0.8151 C.ar    1  UNL1       -0.0289
      6 C           0.5272    0.7248   -0.6887 C.ar    1  UNL1        0.0487
      7 N          -0.3760    1.1967   -1.5936 N.ar    1  UNL1       -0.3541
      8 C          -1.6569    0.8648   -1.1860 C.ar    1  UNL1        0.0481
      9 C          -2.8877    1.1453   -1.8027 C.ar    1  UNL1       -0.0300
     10 C          -4.0775    0.7049   -1.2042 C.ar    1  UNL1       -0.0153
     11 C          -5.3366    0.9947   -1.8394 C.ar    1  UNL1       -0.0534
     12 C          -6.6062    0.6131   -1.3492 C.ar    1  UNL1       -0.0529
     13 C          -6.5046   -0.0917   -0.1546 C.ar    1  UNL1       -0.0103
     14 C          -7.6086   -0.5657    0.5101 C.ar    1  UNL1       -0.0166
     15 S          -7.1610   -1.3914    1.9482 S.2     1  UNL1       -0.1039
     16 C          -5.4857   -1.1103    1.6746 C.ar    1  UNL1       -0.0160
     17 C          -5.2672   -0.4033    0.5142 C.ar    1  UNL1       -0.0032
     18 C          -3.9853   -0.0210    0.0244 C.ar    1  UNL1       -0.0090
     19 C          -2.7327   -0.2963    0.6343 C.ar    1  UNL1       -0.0437
     20 C          -1.5514    0.1551    0.0172 C.ar    1  UNL1        0.0086
     21 C          -0.1687    0.0758    0.3128 C.ar    1  UNL1        0.0148
     22 C           0.6091   -0.4978    1.3520 C.ar    1  UNL1       -0.0115
     23 C           0.2881   -1.2024    2.4435 C.2     1  UNL1       -0.0719
     24 C           4.1396    0.6024    0.0327 C.ar    1  UNL1        0.0474
     25 S           4.9836    1.5422    1.2242 S.2     1  UNL1       -0.0923
     26 C           6.4953    1.3625    0.4387 C.ar    1  UNL1        0.0038
     27 C           6.3761    0.6241   -0.7082 C.ar    1  UNL1        0.0968
     28 N           7.4338    0.3444   -1.5197 N.ar    1  UNL1       -0.2514
     29 C           7.0356   -0.4014   -2.5866 C.ar    1  UNL1        0.0464
     30 C           5.7231   -0.8234   -2.8308 C.ar    1  UNL1        0.0464
     31 N           4.6509   -0.5512   -2.0383 N.ar    1  UNL1       -0.2508
     32 C           5.0205    0.1903   -0.9512 C.ar    1  UNL1        0.1039
     33 H           1.5563   -1.1523    4.1818 H       1  UNL1        0.0350
     34 H           1.6526   -2.6662    3.2336 H       1  UNL1        0.0350
     35 H           3.6755   -1.0592    2.5367 H       1  UNL1        0.0581
     36 H           2.3423    1.4470   -1.6628 H       1  UNL1        0.0645
     37 H          -0.1574    1.7097   -2.4356 H       1  UNL1        0.1659
     38 H          -2.9098    1.7000   -2.7368 H       1  UNL1        0.0644
     39 H          -5.3233    1.5545   -2.7769 H       1  UNL1        0.0624
     40 H          -7.5280    0.8536   -1.8614 H       1  UNL1        0.0624
     41 H          -8.6523   -0.4790    0.2414 H       1  UNL1        0.0699
     42 H          -4.7696   -1.4866    2.3905 H       1  UNL1        0.0700
     43 H          -2.6764   -0.8469    1.5651 H       1  UNL1        0.0631
     44 H          -0.7040   -1.4784    2.7598 H       1  UNL1        0.0581
     45 H           7.3900    1.8071    0.8493 H       1  UNL1        0.0715
     46 H           7.8304   -0.6678   -3.2779 H       1  UNL1        0.0845
     47 H           5.4977   -1.4185   -3.7116 H       1  UNL1        0.0845
@<TRIPOS>BOND
     1     1     2    1
     2     2     3    2
     3     3     4   ar
     4     4     5   ar
     5     5     6   ar
     6     6     7   ar
     7     7     8   ar
     8     8     9   ar
     9     9    10   ar
    10    10    11   ar
    11    11    12   ar
    12    12    13   ar
    13    13    14   ar
    14    14    15   ar
    15    15    16   ar
    16    16    17   ar
    17    17    18   ar
    18    18    19   ar
    19    19    20   ar
    20    20    21   ar
    21    21    22   ar
    22    22    23    2
    23     4    24    1
    24    24    25   ar
    25    25    26   ar
    26    26    27   ar
    27    27    28   ar
    28    28    29   ar
    29    29    30   ar
    30    30    31   ar
    31    31    32   ar
    32    23     1    1
    33    32    24   ar
    34    22     3   ar
    35    32    27   ar
    36    21     6   ar
    37    20     8   ar
    38    18    10   ar
    39    17    13   ar
    40     1    33    1
    41     1    34    1
    42     2    35    1
    43     5    36    1
    44     7    37    1
    45     9    38    1
    46    11    39    1
    47    12    40    1
    48    14    41    1
    49    16    42    1
    50    19    43    1
    51    23    44    1
    52    26    45    1
    53    29    46    1
    54    30    47    1
