@<TRIPOS>MOLECULE
*****
 45 51 0 0 0
SMALL
GASTEIGER

@<TRIPOS>ATOM
      1 C           0.9987    2.9000    1.8426 C.3     1  UNL1       -0.0148
      2 C           1.9636    2.0771    1.0354 C.2     1  UNL1       -0.0719
      3 C           1.2982    1.1132    0.3783 C.ar    1  UNL1       -0.0134
      4 C           1.8146    0.0729   -0.5248 C.ar    1  UNL1       -0.0079
      5 C           0.9334   -0.7956   -1.0867 C.ar    1  UNL1       -0.0294
      6 C          -0.4395   -0.6410   -0.7428 C.ar    1  UNL1        0.0487
      7 N          -1.4305   -1.4450   -1.2218 N.ar    1  UNL1       -0.3541
      8 C          -2.6471   -1.0386   -0.7021 C.ar    1  UNL1        0.0481
      9 C          -3.9291   -1.5654   -0.9139 C.ar    1  UNL1       -0.0300
     10 C          -5.0175   -0.9630   -0.2587 C.ar    1  UNL1       -0.0130
     11 C          -6.3212   -1.4430   -0.4299 C.ar    1  UNL1       -0.0358
     12 C          -7.3610   -0.8150    0.2378 C.ar    1  UNL1        0.0281
     13 N          -7.1980    0.2445    1.0542 N.ar    1  UNL1       -0.2626
     14 C          -5.9307    0.6948    1.2079 C.ar    1  UNL1        0.0353
     15 C          -4.8080    0.1421    0.5868 C.ar    1  UNL1        0.0009
     16 C          -3.5100    0.6549    0.7852 C.ar    1  UNL1       -0.0428
     17 C          -2.4104    0.0605    0.1343 C.ar    1  UNL1        0.0086
     18 C          -1.0149    0.2957    0.0965 C.ar    1  UNL1        0.0148
     19 C          -0.1337    1.2315    0.7001 C.ar    1  UNL1       -0.0115
     20 C          -0.3245    2.2542    1.5418 C.2     1  UNL1       -0.0719
     21 C           3.2263   -0.0738   -0.8766 C.ar    1  UNL1       -0.0090
     22 C           3.8055    0.4331   -2.0643 C.ar    1  UNL1       -0.0534
     23 C           5.1921    0.2935   -2.3952 C.ar    1  UNL1       -0.0606
     24 C           6.1373   -0.3622   -1.5756 C.ar    1  UNL1       -0.0535
     25 C           5.5603   -0.8558   -0.4047 C.ar    1  UNL1       -0.0103
     26 C           6.2843   -1.5285    0.5481 C.ar    1  UNL1       -0.0166
     27 S           5.2878   -2.0045    1.8658 S.2     1  UNL1       -0.1039
     28 C           3.8843   -1.3078    1.1561 C.ar    1  UNL1       -0.0160
     29 C           4.1655   -0.7230   -0.0573 C.ar    1  UNL1       -0.0032
     30 H           1.2306    2.8418    2.9101 H       1  UNL1        0.0350
     31 H           1.0082    3.9451    1.5195 H       1  UNL1        0.0350
     32 H           3.0287    2.2498    1.0039 H       1  UNL1        0.0581
     33 H           1.2519   -1.5817   -1.7641 H       1  UNL1        0.0644
     34 H          -1.3085   -2.2208   -1.8570 H       1  UNL1        0.1659
     35 H          -4.0727   -2.4191   -1.5697 H       1  UNL1        0.0644
     36 H          -6.5321   -2.2921   -1.0712 H       1  UNL1        0.0639
     37 H          -8.3847   -1.1613    0.1278 H       1  UNL1        0.0830
     38 H          -5.8389    1.5495    1.8733 H       1  UNL1        0.0836
     39 H          -3.3520    1.5072    1.4382 H       1  UNL1        0.0631
     40 H          -1.2656    2.5818    1.9510 H       1  UNL1        0.0581
     41 H           3.1660    0.9668   -2.7687 H       1  UNL1        0.0624
     42 H           5.5364    0.7234   -3.3367 H       1  UNL1        0.0618
     43 H           7.1811   -0.4548   -1.8451 H       1  UNL1        0.0624
     44 H           7.3378   -1.7715    0.5551 H       1  UNL1        0.0699
     45 H           2.9384   -1.3700    1.6772 H       1  UNL1        0.0700
@<TRIPOS>BOND
     1     1     2    1
     2     2     3    2
     3     3     4   ar
     4     4     5   ar
     5     5     6   ar
     6     6     7   ar
     7     7     8   ar
     8     8     9   ar
     9     9    10   ar
    10    10    11   ar
    11    11    12   ar
    12    12    13   ar
    13    13    14   ar
    14    14    15   ar
    15    15    16   ar
    16    16    17   ar
    17    17    18   ar
    18    18    19   ar
    19    19    20    2
    20     4    21    1
    21    21    22   ar
    22    22    23   ar
    23    23    24   ar
    24    24    25   ar
    25    25    26   ar
    26    26    27   ar
    27    27    28   ar
    28    28    29   ar
    29    20     1    1
    30    29    21   ar
    31    19     3   ar
    32    29    25   ar
    33    18     6   ar
    34    17     8   ar
    35    15    10   ar
    36     1    30    1
    37     1    31    1
    38     2    32    1
    39     5    33    1
    40     7    34    1
    41     9    35    1
    42    11    36    1
    43    12    37    1
    44    14    38    1
    45    16    39    1
    46    20    40    1
    47    22    41    1
    48    23    42    1
    49    24    43    1
    50    26    44    1
    51    28    45    1
