@<TRIPOS>MOLECULE
*****
 44 50 0 0 0
SMALL
GASTEIGER

@<TRIPOS>ATOM
      1 C           0.1694    2.3989    2.2255 C.3     1  UNL1        0.0000
      2 C           1.3185    1.4927    1.9020 C.2     1  UNL1        0.0000
      3 C           0.8935    0.4820    1.1252 C.ar    1  UNL1        0.0000
      4 C           1.6548   -0.6810    0.6415 C.ar    1  UNL1        0.0000
      5 C           0.9825   -1.6398   -0.0461 C.ar    1  UNL1        0.0000
      6 C          -0.4057   -1.4290   -0.2832 C.ar    1  UNL1        0.0000
      7 N          -1.1798   -2.3494   -0.9335 N.ar    1  UNL1        0.0000
      8 C          -2.4460   -1.8432   -1.0382 C.ar    1  UNL1        0.0000
      9 C          -3.5044   -2.5812   -1.6311 C.ar    1  UNL1        0.0000
     10 C          -4.7049   -1.9713   -1.6932 C.ar    1  UNL1        0.0000
     11 C          -4.8622   -0.6013   -1.2088 C.ar    1  UNL1        0.0000
     12 C          -6.0095    0.0972   -1.3129 C.2     1  UNL1        0.0000
     13 SI         -5.7804    1.8429   -0.6968 Si      1  UNL1        0.0000
     14 C          -3.9932    1.4412   -0.3345 C.2     1  UNL1        0.0000
     15 C          -3.7128    0.1540   -0.6069 C.ar    1  UNL1        0.0000
     16 C          -2.4741   -0.5611   -0.4904 C.ar    1  UNL1        0.0000
     17 C          -1.1976   -0.3389    0.0738 C.ar    1  UNL1        0.0000
     18 C          -0.5485    0.6594    0.8567 C.ar    1  UNL1        0.0000
     19 C          -0.9794    1.7410    1.5178 C.2     1  UNL1        0.0000
     20 C           3.0603   -0.8634    0.8233 C.ar    1  UNL1        0.0000
     21 S           3.6761   -2.0373    1.9506 S.2     1  UNL1        0.0000
     22 C           5.3254   -1.6477    1.6135 C.ar    1  UNL1        0.0000
     23 C           5.4055   -0.6528    0.6786 C.ar    1  UNL1        0.0000
     24 C           6.5410   -0.0080    0.0947 C.2     1  UNL1        0.0000
     25 C           6.2456    0.9492   -0.8123 C.2     1  UNL1        0.0000
     26 SI          4.3455    1.1430   -1.0319 Si      1  UNL1        0.0000
     27 C           4.1234   -0.2233    0.2496 C.ar    1  UNL1        0.0000
     28 H           0.3418    3.4096    1.8443 H       1  UNL1        0.0000
     29 H          -0.0063    2.4372    3.3047 H       1  UNL1        0.0000
     30 H           2.3187    1.6223    2.2871 H       1  UNL1        0.0000
     31 H           1.4799   -2.5238   -0.4329 H       1  UNL1        0.0000
     32 H          -0.8715   -3.2499   -1.2732 H       1  UNL1        0.0000
     33 H          -3.3626   -3.5907   -1.9998 H       1  UNL1        0.0000
     34 H          -5.5624   -2.4751   -2.1252 H       1  UNL1        0.0000
     35 H          -6.9458   -0.2385   -1.7284 H       1  UNL1        0.0000
     36 H          -6.5613    2.1183    0.5336 H       1  UNL1        0.0000
     37 H          -5.9292    2.8485   -1.7765 H       1  UNL1        0.0000
     38 H          -3.3273    2.2070    0.0125 H       1  UNL1        0.0000
     39 H          -1.9921    2.0903    1.5970 H       1  UNL1        0.0000
     40 H           6.1221   -2.1705    2.1233 H       1  UNL1        0.0000
     41 H           7.5559   -0.2747    0.3661 H       1  UNL1        0.0000
     42 H           6.9295    1.5626   -1.3759 H       1  UNL1        0.0000
     43 H           3.9171    2.4902   -0.5783 H       1  UNL1        0.0000
     44 H           3.9503    0.7641   -2.4116 H       1  UNL1        0.0000
@<TRIPOS>BOND
     1     1     2    1
     2     2     3    2
     3     3     4   ar
     4     4     5   ar
     5     5     6   ar
     6     6     7   ar
     7     7     8   ar
     8     8     9   ar
     9     9    10   ar
    10    10    11   ar
    11    11    12    2
    12    12    13    1
    13    13    14    1
    14    14    15    2
    15    15    16   ar
    16    16    17   ar
    17    17    18   ar
    18    18    19    2
    19     4    20    1
    20    20    21   ar
    21    21    22   ar
    22    22    23   ar
    23    23    24    1
    24    24    25    2
    25    25    26    1
    26    26    27    1
    27    19     1    1
    28    27    20   ar
    29    18     3   ar
    30    27    23   ar
    31    17     6   ar
    32    16     8   ar
    33    15    11   ar
    34     1    28    1
    35     1    29    1
    36     2    30    1
    37     5    31    1
    38     7    32    1
    39     9    33    1
    40    10    34    1
    41    12    35    1
    42    13    36    1
    43    13    37    1
    44    14    38    1
    45    19    39    1
    46    22    40    1
    47    24    41    1
    48    25    42    1
    49    26    43    1
    50    26    44    1
