@<TRIPOS>MOLECULE
*****
 45 51 0 0 0
SMALL
GASTEIGER

@<TRIPOS>ATOM
      1 C          -2.9892    0.7838   -3.0334 C.3     1  UNL1       -0.0148
      2 C          -1.7920    0.7021   -2.1253 C.2     1  UNL1       -0.0719
      3 C          -2.1219    0.0537   -0.9958 C.ar    1  UNL1       -0.0134
      4 C          -1.2864   -0.2654    0.1807 C.ar    1  UNL1       -0.0079
      5 C          -1.8700   -0.9333    1.2145 C.ar    1  UNL1       -0.0295
      6 C          -3.2440   -1.2812    1.0829 C.ar    1  UNL1        0.0476
      7 N          -3.9558   -1.9518    2.0357 N.ar    1  UNL1       -0.3606
      8 C          -5.2479   -2.1212    1.5831 C.ar    1  UNL1        0.0027
      9 C          -5.3559   -1.5502    0.3274 C.ar    1  UNL1       -0.0361
     10 C          -4.0899   -1.0241    0.0209 C.ar    1  UNL1        0.0071
     11 C          -3.5390   -0.3285   -1.0813 C.ar    1  UNL1       -0.0121
     12 C          -4.0573    0.0805   -2.2445 C.2     1  UNL1       -0.0719
     13 C           0.1278    0.1079    0.2929 C.ar    1  UNL1       -0.0092
     14 C           1.0649   -0.7375   -0.1990 C.ar    1  UNL1       -0.0451
     15 C           2.5060   -0.4343   -0.1274 C.ar    1  UNL1       -0.0085
     16 C           3.5177   -1.2787   -0.6195 C.ar    1  UNL1       -0.0031
     17 C           3.3193   -2.4942   -1.2340 C.ar    1  UNL1       -0.0160
     18 S           4.8035   -3.2318   -1.6975 S.2     1  UNL1       -0.1039
     19 C           5.7311   -1.9262   -1.0788 C.ar    1  UNL1       -0.0166
     20 C           4.9248   -0.9574   -0.5346 C.ar    1  UNL1       -0.0103
     21 C           5.4458    0.2051    0.0333 C.ar    1  UNL1       -0.0529
     22 C           4.4343    1.0581    0.5289 C.ar    1  UNL1       -0.0529
     23 C           3.0312    0.7658    0.4587 C.ar    1  UNL1       -0.0098
     24 C           2.0130    1.6910    0.9893 C.ar    1  UNL1       -0.0135
     25 C           2.1411    2.8875    1.5866 C.2     1  UNL1       -0.0719
     26 C           0.7829    3.4261    1.9332 C.3     1  UNL1       -0.0148
     27 C          -0.1297    2.3446    1.4381 C.2     1  UNL1       -0.0719
     28 C           0.5942    1.3509    0.8977 C.ar    1  UNL1       -0.0135
     29 H          -3.2645    1.8249   -3.2262 H       1  UNL1        0.0350
     30 H          -2.7983    0.2711   -3.9808 H       1  UNL1        0.0350
     31 H          -0.8215    1.1114   -2.3615 H       1  UNL1        0.0581
     32 H          -1.3147   -1.1933    2.1099 H       1  UNL1        0.0644
     33 H          -3.6009   -2.2734    2.9264 H       1  UNL1        0.1653
     34 H          -5.9774   -2.6338    2.1954 H       1  UNL1        0.0807
     35 H          -6.2484   -1.5239   -0.2830 H       1  UNL1        0.0639
     36 H          -5.0744   -0.0634   -2.5723 H       1  UNL1        0.0581
     37 H           0.7592   -1.6682   -0.6639 H       1  UNL1        0.0630
     38 H           2.3963   -3.0126   -1.4493 H       1  UNL1        0.0700
     39 H           6.8097   -1.9496   -1.1524 H       1  UNL1        0.0699
     40 H           6.4978    0.4502    0.0991 H       1  UNL1        0.0624
     41 H           4.7556    1.9915    0.9896 H       1  UNL1        0.0624
     42 H           3.0604    3.4105    1.7964 H       1  UNL1        0.0581
     43 H           0.6787    3.5667    3.0130 H       1  UNL1        0.0350
     44 H           0.5908    4.3713    1.4171 H       1  UNL1        0.0350
     45 H          -1.2067    2.3795    1.5094 H       1  UNL1        0.0581
@<TRIPOS>BOND
     1     1     2    1
     2     2     3    2
     3     3     4   ar
     4     4     5   ar
     5     5     6   ar
     6     6     7   ar
     7     7     8   ar
     8     8     9   ar
     9     9    10   ar
    10    10    11   ar
    11    11    12    2
    12     4    13    1
    13    13    14   ar
    14    14    15   ar
    15    15    16   ar
    16    16    17   ar
    17    17    18   ar
    18    18    19   ar
    19    19    20   ar
    20    20    21   ar
    21    21    22   ar
    22    22    23   ar
    23    23    24   ar
    24    24    25    2
    25    25    26    1
    26    26    27    1
    27    27    28    2
    28    12     1    1
    29    28    13   ar
    30    11     3   ar
    31    23    15   ar
    32    28    24   ar
    33    10     6   ar
    34    20    16   ar
    35     1    29    1
    36     1    30    1
    37     2    31    1
    38     5    32    1
    39     7    33    1
    40     8    34    1
    41     9    35    1
    42    12    36    1
    43    14    37    1
    44    17    38    1
    45    19    39    1
    46    21    40    1
    47    22    41    1
    48    25    42    1
    49    26    43    1
    50    26    44    1
    51    27    45    1
