@<TRIPOS>MOLECULE
*****
 31 35 0 0 0
SMALL
GASTEIGER

@<TRIPOS>ATOM
      1 C          -2.0421   -1.8965   -2.1575 C.3     1  UNL1       -0.0148
      2 C          -0.7261   -1.4244   -1.5995 C.2     1  UNL1       -0.0719
      3 C          -0.9405   -0.5108   -0.6373 C.ar    1  UNL1       -0.0129
      4 C           0.0317    0.2360    0.1874 C.ar    1  UNL1       -0.0019
      5 C          -0.4503    1.1252    1.1003 C.ar    1  UNL1       -0.0290
      6 C          -1.8639    1.2764    1.1868 C.ar    1  UNL1        0.0476
      7 N          -2.4884    2.1326    2.0479 N.ar    1  UNL1       -0.3606
      8 C          -3.8517    2.0220    1.8682 C.ar    1  UNL1        0.0027
      9 C          -4.0938    1.0845    0.8799 C.ar    1  UNL1       -0.0361
     10 C          -2.8370    0.6208    0.4568 C.ar    1  UNL1        0.0071
     11 C          -2.3927   -0.3185   -0.5037 C.ar    1  UNL1       -0.0121
     12 C          -3.0445   -1.1063   -1.3658 C.2     1  UNL1       -0.0719
     13 C           1.4531    0.0553    0.1205 C.ar    1  UNL1        0.0216
     14 C           2.1762   -1.0718    0.4671 C.ar    1  UNL1       -0.0326
     15 C           3.5734   -0.8897    0.2463 C.ar    1  UNL1        0.0270
     16 S           4.9958   -1.8759    0.4705 S.2     1  UNL1       -0.0961
     17 C           5.9785   -0.6039   -0.1238 C.ar    1  UNL1       -0.0227
     18 C           5.2772    0.5243   -0.4821 C.ar    1  UNL1       -0.0404
     19 C           3.8783    0.3415   -0.2607 C.ar    1  UNL1        0.0270
     20 S           2.4568    1.3217   -0.4874 S.2     1  UNL1       -0.0877
     21 H          -2.1729   -2.9707   -1.9975 H       1  UNL1        0.0350
     22 H          -2.1184   -1.6705   -3.2252 H       1  UNL1        0.0350
     23 H           0.2352   -1.7759   -1.9417 H       1  UNL1        0.0581
     24 H           0.2032    1.6962    1.7518 H       1  UNL1        0.0645
     25 H          -2.0340    2.7487    2.7087 H       1  UNL1        0.1653
     26 H          -4.5302    2.6218    2.4597 H       1  UNL1        0.0807
     27 H          -5.0668    0.7821    0.5171 H       1  UNL1        0.0639
     28 H          -4.1143   -1.1680   -1.4859 H       1  UNL1        0.0581
     29 H           1.7309   -1.9778    0.8596 H       1  UNL1        0.0640
     30 H           7.0484   -0.7530   -0.1824 H       1  UNL1        0.0694
     31 H           5.7289    1.4247   -0.8782 H       1  UNL1        0.0634
@<TRIPOS>BOND
     1     1     2    1
     2     2     3    2
     3     3     4   ar
     4     4     5   ar
     5     5     6   ar
     6     6     7   ar
     7     7     8   ar
     8     8     9   ar
     9     9    10   ar
    10    10    11   ar
    11    11    12    2
    12     4    13    1
    13    13    14   ar
    14    14    15   ar
    15    15    16   ar
    16    16    17   ar
    17    17    18   ar
    18    18    19   ar
    19    19    20   ar
    20    12     1    1
    21    20    13   ar
    22    11     3   ar
    23    19    15   ar
    24    10     6   ar
    25     1    21    1
    26     1    22    1
    27     2    23    1
    28     5    24    1
    29     7    25    1
    30     8    26    1
    31     9    27    1
    32    12    28    1
    33    14    29    1
    34    17    30    1
    35    18    31    1
