@<TRIPOS>MOLECULE
*****
 44 50 0 0 0
SMALL
GASTEIGER

@<TRIPOS>ATOM
      1 C           2.1424   -3.3659   -1.1602 C.3     1  UNL1        0.0000
      2 C           3.0476   -2.2601   -0.7223 C.2     1  UNL1        0.0000
      3 C           2.3169   -1.1964   -0.3506 C.ar    1  UNL1        0.0000
      4 C           2.7522    0.1257    0.0629 C.ar    1  UNL1        0.0000
      5 C           1.7731    1.0464    0.2184 C.ar    1  UNL1        0.0000
      6 C           0.3151    0.7906    0.0623 C.ar    1  UNL1        0.0000
      7 C          -0.1312   -0.4894   -0.2106 C.ar    1  UNL1        0.0000
      8 C          -1.5606   -0.6722   -0.1869 C.ar    1  UNL1        0.0000
      9 N          -2.1898   -1.9068   -0.2168 N.ar    1  UNL1        0.0000
     10 C          -3.5212   -1.6762   -0.1719 C.ar    1  UNL1        0.0000
     11 C          -4.6519   -2.4973   -0.1626 C.2     1  UNL1        0.0000
     12 C          -5.6966   -1.6399   -0.0432 C.2     1  UNL1        0.0000
     13 C          -5.2451   -0.1571    0.0350 C.3     1  UNL1        0.0000
     14 C          -3.7829   -0.3410   -0.0615 C.ar    1  UNL1        0.0000
     15 C          -2.5515    0.3019   -0.0351 C.ar    1  UNL1        0.0000
     16 C          -2.1521    1.6468    0.1481 C.ar    1  UNL1        0.0000
     17 C          -2.9451    2.7256    0.2821 C.2     1  UNL1        0.0000
     18 SI         -1.9282    4.2604    0.5241 Si      1  UNL1        0.0000
     19 C          -0.3878    3.2038    0.4114 C.2     1  UNL1        0.0000
     20 C          -0.6842    1.8972    0.2243 C.ar    1  UNL1        0.0000
     21 C           0.8908   -1.5042   -0.5011 C.ar    1  UNL1        0.0000
     22 C           0.7841   -2.7520   -0.9931 C.2     1  UNL1        0.0000
     23 C           4.0985    0.5501    0.3233 C.ar    1  UNL1        0.0000
     24 C           5.1728   -0.1586    0.8566 C.ar    1  UNL1        0.0000
     25 C           6.2897    0.7076    0.9220 C.ar    1  UNL1        0.0000
     26 C           5.8546    1.9121    0.4363 C.ar    1  UNL1        0.0000
     27 O           4.5500    1.8362    0.0836 O.2     1  UNL1        0.0000
     28 H           2.2582   -4.2503   -0.5271 H       1  UNL1        0.0000
     29 H           2.3256   -3.6333   -2.2050 H       1  UNL1        0.0000
     30 H           4.1235   -2.3202   -0.7640 H       1  UNL1        0.0000
     31 H           2.0468    2.0506    0.5282 H       1  UNL1        0.0000
     32 H          -1.7442   -2.8105   -0.2115 H       1  UNL1        0.0000
     33 H          -4.6854   -3.5734   -0.2327 H       1  UNL1        0.0000
     34 H          -6.7352   -1.9332   -0.0023 H       1  UNL1        0.0000
     35 H          -5.5472    0.2874    0.9870 H       1  UNL1        0.0000
     36 H          -5.6489    0.4133   -0.8057 H       1  UNL1        0.0000
     37 H          -4.0220    2.7478    0.2626 H       1  UNL1        0.0000
     38 H          -2.0455    5.2104   -0.6084 H       1  UNL1        0.0000
     39 H          -2.1045    4.8573    1.8701 H       1  UNL1        0.0000
     40 H           0.5809    3.6686    0.4816 H       1  UNL1        0.0000
     41 H          -0.1088   -3.2689   -1.2971 H       1  UNL1        0.0000
     42 H           5.1417   -1.1905    1.1774 H       1  UNL1        0.0000
     43 H           7.2823    0.4824    1.2847 H       1  UNL1        0.0000
     44 H           6.3232    2.8748    0.2879 H       1  UNL1        0.0000
@<TRIPOS>BOND
     1     1     2    1
     2     2     3    2
     3     3     4   ar
     4     4     5   ar
     5     5     6   ar
     6     6     7   ar
     7     7     8   ar
     8     8     9   ar
     9     9    10   ar
    10    10    11    1
    11    11    12    2
    12    12    13    1
    13    13    14    1
    14    14    15   ar
    15    15    16   ar
    16    16    17    2
    17    17    18    1
    18    18    19    1
    19    19    20    2
    20     7    21   ar
    21    21    22    2
    22     4    23    1
    23    23    24   ar
    24    24    25   ar
    25    25    26   ar
    26    26    27   ar
    27    22     1    1
    28    27    23   ar
    29    21     3   ar
    30    20     6   ar
    31    15     8   ar
    32    20    16   ar
    33    14    10   ar
    34     1    28    1
    35     1    29    1
    36     2    30    1
    37     5    31    1
    38     9    32    1
    39    11    33    1
    40    12    34    1
    41    13    35    1
    42    13    36    1
    43    17    37    1
    44    18    38    1
    45    18    39    1
    46    19    40    1
    47    22    41    1
    48    24    42    1
    49    25    43    1
    50    26    44    1
