@<TRIPOS>MOLECULE
*****
 45 51 0 0 0
SMALL
GASTEIGER

@<TRIPOS>ATOM
      1 C           1.5671   -2.7281    2.1912 C.3     1  UNL1        0.0000
      2 C           2.5840   -2.0396    1.3375 C.2     1  UNL1        0.0000
      3 C           1.9868   -1.0840    0.6073 C.ar    1  UNL1        0.0000
      4 C           2.5761   -0.0773   -0.2562 C.ar    1  UNL1        0.0000
      5 C           1.7270    0.8887   -0.6792 C.ar    1  UNL1        0.0000
      6 C           0.2691    0.9496   -0.3703 C.ar    1  UNL1        0.0000
      7 C          -0.3488   -0.1196    0.2313 C.ar    1  UNL1        0.0000
      8 C          -1.8390   -0.1590    0.2758 C.ar    1  UNL1        0.0000
      9 C          -2.6366   -1.3171    0.3422 C.ar    1  UNL1        0.0000
     10 C          -2.2734   -2.6349    0.1787 C.ar    1  UNL1        0.0000
     11 N          -3.4058   -3.4118    0.3048 N.ar    1  UNL1        0.0000
     12 C          -4.5120   -2.6113    0.4697 C.ar    1  UNL1        0.0000
     13 C          -4.0645   -1.3157    0.4535 C.ar    1  UNL1        0.0000
     14 C          -4.8829   -0.2004    0.4880 C.ar    1  UNL1        0.0000
     15 C          -4.1187    0.9684    0.2842 C.ar    1  UNL1        0.0000
     16 C          -2.6769    0.9980    0.1394 C.ar    1  UNL1        0.0000
     17 C          -1.9810    2.2236   -0.3180 C.ar    1  UNL1        0.0000
     18 C          -2.5560    3.4268   -0.5319 C.2     1  UNL1        0.0000
     19 SI         -1.3450    4.6497   -1.2414 Si      1  UNL1        0.0000
     20 C          -0.0495    3.3112   -1.1643 C.2     1  UNL1        0.0000
     21 C          -0.5397    2.1525   -0.6682 C.ar    1  UNL1        0.0000
     22 C           0.5485   -1.0909    0.8717 C.ar    1  UNL1        0.0000
     23 C           0.3071   -2.0002    1.8328 C.2     1  UNL1        0.0000
     24 C           3.9520   -0.0325   -0.6692 C.ar    1  UNL1        0.0000
     25 C           4.7538    1.0450   -1.0480 C.ar    1  UNL1        0.0000
     26 C           6.0425    0.5542   -1.3652 C.ar    1  UNL1        0.0000
     27 C           5.9830   -0.7992   -1.1661 C.ar    1  UNL1        0.0000
     28 O           4.7481   -1.1610   -0.7484 O.2     1  UNL1        0.0000
     29 H           1.4945   -3.7917    1.9469 H       1  UNL1        0.0000
     30 H           1.8005   -2.6079    3.2531 H       1  UNL1        0.0000
     31 H           3.6425   -2.2480    1.3693 H       1  UNL1        0.0000
     32 H           2.0893    1.6657   -1.3430 H       1  UNL1        0.0000
     33 H          -1.3247   -3.1082   -0.0318 H       1  UNL1        0.0000
     34 H          -3.4239   -4.4209    0.2349 H       1  UNL1        0.0000
     35 H          -5.5018   -3.0409    0.5417 H       1  UNL1        0.0000
     36 H          -5.9604   -0.2045    0.5631 H       1  UNL1        0.0000
     37 H          -4.6787    1.8974    0.1928 H       1  UNL1        0.0000
     38 H          -3.5814    3.7168   -0.3783 H       1  UNL1        0.0000
     39 H          -1.6757    5.0399   -2.6330 H       1  UNL1        0.0000
     40 H          -1.0563    5.7717   -0.3162 H       1  UNL1        0.0000
     41 H           0.9620    3.5405   -1.4529 H       1  UNL1        0.0000
     42 H          -0.6405   -2.1867    2.3139 H       1  UNL1        0.0000
     43 H           4.4394    2.0790   -1.0802 H       1  UNL1        0.0000
     44 H           6.9041    1.1178   -1.6930 H       1  UNL1        0.0000
     45 H           6.6958   -1.6051   -1.2690 H       1  UNL1        0.0000
@<TRIPOS>BOND
     1     1     2    1
     2     2     3    2
     3     3     4   ar
     4     4     5   ar
     5     5     6   ar
     6     6     7   ar
     7     7     8   ar
     8     8     9   ar
     9     9    10   ar
    10    10    11   ar
    11    11    12   ar
    12    12    13   ar
    13    13    14   ar
    14    14    15   ar
    15    15    16   ar
    16    16    17   ar
    17    17    18    2
    18    18    19    1
    19    19    20    1
    20    20    21    2
    21     7    22   ar
    22    22    23    2
    23     4    24    1
    24    24    25   ar
    25    25    26   ar
    26    26    27   ar
    27    27    28   ar
    28    23     1    1
    29    28    24   ar
    30    22     3   ar
    31    21     6   ar
    32    16     8   ar
    33    21    17   ar
    34    13     9   ar
    35     1    29    1
    36     1    30    1
    37     2    31    1
    38     5    32    1
    39    10    33    1
    40    11    34    1
    41    12    35    1
    42    14    36    1
    43    15    37    1
    44    18    38    1
    45    19    39    1
    46    19    40    1
    47    20    41    1
    48    23    42    1
    49    25    43    1
    50    26    44    1
    51    27    45    1
