@<TRIPOS>MOLECULE
*****
 42 48 0 0 0
SMALL
GASTEIGER

@<TRIPOS>ATOM
      1 SI          2.0194   -1.9565   -2.9965 Si      1  UNL1        0.0000
      2 C           2.9410   -0.9977   -1.6999 C.2     1  UNL1        0.0000
      3 C           2.1031   -0.4101   -0.8184 C.ar    1  UNL1        0.0000
      4 C           2.5255    0.5680    0.1905 C.ar    1  UNL1        0.0000
      5 C           1.5576    1.2528    0.8403 C.ar    1  UNL1        0.0000
      6 C           0.1313    0.9832    0.6168 C.ar    1  UNL1        0.0000
      7 C          -0.8866    1.7579    1.1780 C.ar    1  UNL1        0.0000
      8 C          -0.7487    2.9204    1.9010 C.ar    1  UNL1        0.0000
      9 N          -2.0129    3.3560    2.2266 N.ar    1  UNL1        0.0000
     10 C          -2.9550    2.4848    1.7282 C.ar    1  UNL1        0.0000
     11 C          -2.2845    1.4795    1.0689 C.ar    1  UNL1        0.0000
     12 C          -2.8524    0.3423    0.4469 C.ar    1  UNL1        0.0000
     13 C          -4.2819    0.0953    0.4096 C.ar    1  UNL1        0.0000
     14 C          -4.8558   -1.0754   -0.1033 C.ar    1  UNL1        0.0000
     15 C          -3.8795   -1.9875   -0.4831 C.ar    1  UNL1        0.0000
     16 C          -4.2250   -3.2551   -0.8863 C.ar    1  UNL1        0.0000
     17 S          -2.8366   -4.2268   -1.1327 S.2     1  UNL1        0.0000
     18 C          -1.7839   -2.9451   -0.6863 C.ar    1  UNL1        0.0000
     19 C          -2.4473   -1.7559   -0.4714 C.ar    1  UNL1        0.0000
     20 C          -1.8039   -0.5245   -0.0942 C.ar    1  UNL1        0.0000
     21 C          -0.3759   -0.1217   -0.1399 C.ar    1  UNL1        0.0000
     22 C           0.6623   -0.7251   -1.0331 C.ar    1  UNL1        0.0000
     23 C           0.4350   -1.4058   -2.1774 C.2     1  UNL1        0.0000
     24 C           3.8960    0.8527    0.5213 C.ar    1  UNL1        0.0000
     25 N           4.7960   -0.0246    0.9336 N.ar    1  UNL1        0.0000
     26 C           6.0186    0.5821    1.1329 C.ar    1  UNL1        0.0000
     27 C           6.0661    1.9280    0.8560 C.ar    1  UNL1        0.0000
     28 S           4.5310    2.4626    0.3245 S.2     1  UNL1        0.0000
     29 H           2.1817   -1.3829   -4.3543 H       1  UNL1        0.0000
     30 H           2.2271   -3.4206   -2.8892 H       1  UNL1        0.0000
     31 H           4.0133   -0.8860   -1.7514 H       1  UNL1        0.0000
     32 H           1.8073    1.9836    1.6020 H       1  UNL1        0.0000
     33 H           0.1154    3.4925    2.2090 H       1  UNL1        0.0000
     34 H          -2.2195    4.1919    2.7584 H       1  UNL1        0.0000
     35 H          -4.0052    2.6693    1.9056 H       1  UNL1        0.0000
     36 H          -4.9581    0.8469    0.8140 H       1  UNL1        0.0000
     37 H          -5.9228   -1.2521   -0.1108 H       1  UNL1        0.0000
     38 H          -5.2104   -3.6829   -1.0098 H       1  UNL1        0.0000
     39 H          -0.7290   -3.1610   -0.6082 H       1  UNL1        0.0000
     40 H          -0.5119   -1.6408   -2.6349 H       1  UNL1        0.0000
     41 H           6.8528   -0.0137    1.4828 H       1  UNL1        0.0000
     42 H           6.9065    2.6020    0.9339 H       1  UNL1        0.0000
@<TRIPOS>BOND
     1     1     2    1
     2     2     3    2
     3     3     4   ar
     4     4     5   ar
     5     5     6   ar
     6     6     7   ar
     7     7     8   ar
     8     8     9   ar
     9     9    10   ar
    10    10    11   ar
    11    11    12   ar
    12    12    13   ar
    13    13    14   ar
    14    14    15   ar
    15    15    16   ar
    16    16    17   ar
    17    17    18   ar
    18    18    19   ar
    19    19    20   ar
    20    20    21   ar
    21    21    22   ar
    22    22    23    2
    23     4    24    1
    24    24    25   ar
    25    25    26   ar
    26    26    27   ar
    27    27    28   ar
    28    23     1    1
    29    28    24   ar
    30    22     3   ar
    31    21     6   ar
    32    11     7   ar
    33    20    12   ar
    34    19    15   ar
    35     1    29    1
    36     1    30    1
    37     2    31    1
    38     5    32    1
    39     8    33    1
    40     9    34    1
    41    10    35    1
    42    13    36    1
    43    14    37    1
    44    16    38    1
    45    18    39    1
    46    23    40    1
    47    26    41    1
    48    27    42    1
