@<TRIPOS>MOLECULE
*****
 50 57 0 0 0
SMALL
GASTEIGER

@<TRIPOS>ATOM
      1 C          -1.4246    3.6418   -0.3876 C.3     1  UNL1       -0.0148
      2 C          -2.4960    2.5987   -0.3348 C.2     1  UNL1       -0.0719
      3 C          -1.9310    1.3901   -0.1948 C.ar    1  UNL1       -0.0135
      4 C          -2.5585    0.1114    0.0489 C.ar    1  UNL1       -0.0099
      5 C          -1.7324   -0.9105    0.3620 C.ar    1  UNL1       -0.0451
      6 C          -0.2495   -0.8095    0.4013 C.ar    1  UNL1       -0.0087
      7 C           0.3861    0.3295   -0.0437 C.ar    1  UNL1       -0.0014
      8 C           1.8750    0.3022   -0.2287 C.ar    1  UNL1        0.0053
      9 C           2.6193    1.1182   -1.1025 C.ar    1  UNL1        0.0290
     10 C           2.1765    1.9598   -2.1018 C.ar    1  UNL1        0.1000
     11 O           3.2294    2.5627   -2.7479 O.2     1  UNL1       -0.4698
     12 C           4.3852    2.0597   -2.2110 C.ar    1  UNL1        0.1001
     13 C           4.0210    1.1656   -1.2578 C.ar    1  UNL1        0.0312
     14 C           4.8083    0.2875   -0.4872 C.ar    1  UNL1        0.0315
     15 C           6.1800    0.0826   -0.4153 C.ar    1  UNL1       -0.0154
     16 C           6.2976   -0.9840    0.4537 C.ar    1  UNL1        0.0932
     17 O           5.0734   -1.4215    0.8796 O.2     1  UNL1       -0.4623
     18 C           4.1230   -0.6162    0.2975 C.ar    1  UNL1        0.1437
     19 C           2.7134   -0.6736    0.4107 C.ar    1  UNL1        0.0337
     20 C           2.0315   -1.8016    1.0413 C.ar    1  UNL1       -0.0099
     21 C           2.5088   -2.8901    1.6663 C.2     1  UNL1       -0.0718
     22 C           1.3773   -3.7994    2.0321 C.3     1  UNL1       -0.0148
     23 C           0.1862   -3.0490    1.5155 C.2     1  UNL1       -0.0719
     24 C           0.5770   -1.8949    0.9456 C.ar    1  UNL1       -0.0133
     25 C          -0.4742    1.5124   -0.2040 C.ar    1  UNL1       -0.0129
     26 C          -0.1739    2.8226   -0.2492 C.2     1  UNL1       -0.0719
     27 C          -4.0095   -0.1320    0.0200 C.ar    1  UNL1       -0.0173
     28 C          -4.6738   -0.2697   -1.2050 C.ar    1  UNL1       -0.0540
     29 C          -6.0513   -0.4942   -1.2371 C.ar    1  UNL1       -0.0612
     30 C          -6.7724   -0.5795   -0.0465 C.ar    1  UNL1       -0.0617
     31 C          -6.1186   -0.4394    1.1773 C.ar    1  UNL1       -0.0612
     32 C          -4.7411   -0.2151    1.2116 C.ar    1  UNL1       -0.0540
     33 H          -1.4405    4.1835   -1.3376 H       1  UNL1        0.0350
     34 H          -1.5235    4.3477    0.4423 H       1  UNL1        0.0350
     35 H          -3.5545    2.8107   -0.3298 H       1  UNL1        0.0581
     36 H          -2.1557   -1.8892    0.5699 H       1  UNL1        0.0630
     37 H           1.2061    2.2331   -2.4913 H       1  UNL1        0.1036
     38 H           5.3083    2.4128   -2.6465 H       1  UNL1        0.1036
     39 H           6.9854    0.6002   -0.9148 H       1  UNL1        0.0655
     40 H           7.1411   -1.5366    0.8446 H       1  UNL1        0.1030
     41 H           3.5449   -3.1207    1.8595 H       1  UNL1        0.0581
     42 H           1.4750   -4.7711    1.5395 H       1  UNL1        0.0350
     43 H           1.3170   -3.9385    3.1154 H       1  UNL1        0.0350
     44 H          -0.8262   -3.3993    1.6395 H       1  UNL1        0.0581
     45 H           0.8073    3.2645   -0.1727 H       1  UNL1        0.0581
     46 H          -4.1195   -0.2031   -2.1385 H       1  UNL1        0.0624
     47 H          -6.5610   -0.6017   -2.1909 H       1  UNL1        0.0618
     48 H          -7.8450   -0.7538   -0.0725 H       1  UNL1        0.0618
     49 H          -6.6811   -0.5026    2.1051 H       1  UNL1        0.0618
     50 H          -4.2405   -0.1007    2.1704 H       1  UNL1        0.0624
@<TRIPOS>BOND
     1     1     2    1
     2     2     3    2
     3     3     4   ar
     4     4     5   ar
     5     5     6   ar
     6     6     7   ar
     7     7     8   ar
     8     8     9   ar
     9     9    10   ar
    10    10    11   ar
    11    11    12   ar
    12    12    13   ar
    13    13    14   ar
    14    14    15   ar
    15    15    16   ar
    16    16    17   ar
    17    17    18   ar
    18    18    19   ar
    19    19    20   ar
    20    20    21    2
    21    21    22    1
    22    22    23    1
    23    23    24    2
    24     7    25   ar
    25    25    26    2
    26     4    27    1
    27    27    28   ar
    28    28    29   ar
    29    29    30   ar
    30    30    31   ar
    31    31    32   ar
    32    26     1    1
    33    32    27   ar
    34    25     3   ar
    35    24     6   ar
    36    19     8   ar
    37    24    20   ar
    38    13     9   ar
    39    18    14   ar
    40     1    33    1
    41     1    34    1
    42     2    35    1
    43     5    36    1
    44    10    37    1
    45    12    38    1
    46    15    39    1
    47    16    40    1
    48    21    41    1
    49    22    42    1
    50    22    43    1
    51    23    44    1
    52    26    45    1
    53    28    46    1
    54    29    47    1
    55    30    48    1
    56    31    49    1
    57    32    50    1
