@<TRIPOS>MOLECULE
*****
 41 47 0 0 0
SMALL
GASTEIGER

@<TRIPOS>ATOM
      1 C           1.4819   -3.5002    1.0652 C.3     1  UNL1       -0.0148
      2 C           2.5101   -2.4841    0.6803 C.2     1  UNL1       -0.0719
      3 C           1.8991   -1.3347    0.3514 C.ar    1  UNL1       -0.0129
      4 C           2.4858   -0.0447    0.0482 C.ar    1  UNL1       -0.0018
      5 C           1.6143    0.9848   -0.0466 C.ar    1  UNL1       -0.0446
      6 C           0.1384    0.8628    0.0850 C.ar    1  UNL1       -0.0086
      7 C          -0.4633   -0.3735    0.1570 C.ar    1  UNL1       -0.0000
      8 C          -1.9646   -0.4680    0.0172 C.ar    1  UNL1        0.0191
      9 C          -2.6359   -1.6481   -0.4379 C.ar    1  UNL1        0.1082
     10 N          -2.0949   -2.7867   -0.9096 N.ar    1  UNL1       -0.1901
     11 S          -3.3255   -3.8253   -1.2783 S.2     1  UNL1        0.1165
     12 N          -4.6365   -2.8897   -0.9000 N.ar    1  UNL1       -0.1908
     13 C          -4.1535   -1.7074   -0.4889 C.ar    1  UNL1        0.1005
     14 C          -4.9495   -0.5981   -0.1371 C.ar    1  UNL1       -0.0329
     15 C          -4.2534    0.5775    0.1676 C.ar    1  UNL1       -0.0513
     16 C          -2.8340    0.6568    0.2044 C.ar    1  UNL1       -0.0077
     17 C          -2.1637    1.9597    0.3079 C.ar    1  UNL1       -0.0134
     18 C          -2.6770    3.1933    0.4518 C.2     1  UNL1       -0.0719
     19 C          -1.5740    4.2060    0.4067 C.3     1  UNL1       -0.0148
     20 C          -0.3618    3.3451    0.2182 C.2     1  UNL1       -0.0719
     21 C          -0.7174    2.0489    0.1625 C.ar    1  UNL1       -0.0135
     22 C           0.4468   -1.4966    0.4407 C.ar    1  UNL1       -0.0128
     23 C           0.2042   -2.7307    0.9164 C.2     1  UNL1       -0.0719
     24 C           3.8784    0.2015   -0.1614 C.ar    1  UNL1        0.0394
     25 C           4.7552   -0.4074   -1.0470 C.ar    1  UNL1        0.0425
     26 N           6.0691    0.0201   -1.0109 N.ar    1  UNL1       -0.2551
     27 C           6.1900    0.9476   -0.0893 C.ar    1  UNL1        0.0652
     28 S           4.7669    1.3546    0.7712 S.2     1  UNL1       -0.0754
     29 H           1.6231   -3.8280    2.0993 H       1  UNL1        0.0350
     30 H           1.5051   -4.3656    0.3967 H       1  UNL1        0.0350
     31 H           3.5746   -2.6522    0.7388 H       1  UNL1        0.0581
     32 H           1.9838    1.9783   -0.2844 H       1  UNL1        0.0630
     33 H          -6.0314   -0.6387   -0.1742 H       1  UNL1        0.0640
     34 H          -4.8490    1.4711    0.3501 H       1  UNL1        0.0624
     35 H          -3.7171    3.4586    0.5564 H       1  UNL1        0.0581
     36 H          -1.5171    4.7693    1.3426 H       1  UNL1        0.0350
     37 H          -1.7032    4.8952   -0.4328 H       1  UNL1        0.0350
     38 H           0.6393    3.7448    0.1792 H       1  UNL1        0.0581
     39 H          -0.7545   -3.1462    1.1806 H       1  UNL1        0.0581
     40 H           4.4763   -1.1810   -1.7533 H       1  UNL1        0.0841
     41 H           7.1350    1.4310    0.1214 H       1  UNL1        0.0907
@<TRIPOS>BOND
     1     1     2    1
     2     2     3    2
     3     3     4   ar
     4     4     5   ar
     5     5     6   ar
     6     6     7   ar
     7     7     8   ar
     8     8     9   ar
     9     9    10   ar
    10    10    11   ar
    11    11    12   ar
    12    12    13   ar
    13    13    14   ar
    14    14    15   ar
    15    15    16   ar
    16    16    17   ar
    17    17    18    2
    18    18    19    1
    19    19    20    1
    20    20    21    2
    21     7    22   ar
    22    22    23    2
    23     4    24    1
    24    24    25   ar
    25    25    26   ar
    26    26    27   ar
    27    27    28   ar
    28    23     1    1
    29    28    24   ar
    30    22     3   ar
    31    21     6   ar
    32    16     8   ar
    33    21    17   ar
    34    13     9   ar
    35     1    29    1
    36     1    30    1
    37     2    31    1
    38     5    32    1
    39    14    33    1
    40    15    34    1
    41    18    35    1
    42    19    36    1
    43    19    37    1
    44    20    38    1
    45    23    39    1
    46    25    40    1
    47    27    41    1
