@<TRIPOS>MOLECULE
*****
 48 55 0 0 0
SMALL
GASTEIGER

@<TRIPOS>ATOM
      1 C          -1.6217    3.6061    0.5630 C.3     1  UNL1       -0.0148
      2 C          -2.4938    2.4985    0.0673 C.2     1  UNL1       -0.0719
      3 C          -1.7472    1.4034   -0.1438 C.ar    1  UNL1       -0.0129
      4 C          -2.1717    0.0712   -0.5182 C.ar    1  UNL1       -0.0013
      5 C          -1.2072   -0.8747   -0.5303 C.ar    1  UNL1       -0.0446
      6 C           0.2306   -0.6261   -0.2465 C.ar    1  UNL1       -0.0086
      7 C           0.6957    0.6522   -0.0339 C.ar    1  UNL1       -0.0006
      8 C           2.1890    0.9001    0.0480 C.ar    1  UNL1        0.0111
      9 C           2.7440    2.1677   -0.1293 C.ar    1  UNL1        0.0367
     10 N           4.0480    2.5170   -0.0222 N.ar    1  UNL1       -0.2528
     11 C           4.8853    1.4952    0.2547 C.ar    1  UNL1        0.0891
     12 C           6.2853    1.5421    0.4449 C.ar    1  UNL1       -0.0183
     13 C           6.7087    0.2541    0.6738 C.ar    1  UNL1        0.0042
     14 N           5.6074   -0.5623    0.6185 N.ar    1  UNL1       -0.3589
     15 C           4.4681    0.1694    0.3701 C.ar    1  UNL1        0.0734
     16 C           3.1105   -0.1594    0.2198 C.ar    1  UNL1        0.0170
     17 C           2.6069   -1.5298    0.1253 C.ar    1  UNL1       -0.0114
     18 C           3.2131   -2.7282    0.1861 C.2     1  UNL1       -0.0719
     19 C           2.2177   -3.8210   -0.0604 C.3     1  UNL1       -0.0148
     20 C           0.9534   -3.0532   -0.2743 C.2     1  UNL1       -0.0719
     21 C           1.1889   -1.7332   -0.1672 C.ar    1  UNL1       -0.0134
     22 C          -0.3388    1.6934    0.1326 C.ar    1  UNL1       -0.0128
     23 C          -0.2693    2.9545    0.5974 C.2     1  UNL1       -0.0719
     24 C          -3.5037   -0.3295   -0.8016 C.ar    1  UNL1        0.0438
     25 S          -4.0915   -0.7533   -2.3805 S.2     1  UNL1       -0.0939
     26 C          -5.7086   -1.0627   -1.8155 C.ar    1  UNL1       -0.0145
     27 C          -5.7261   -0.8355   -0.4866 C.ar    1  UNL1        0.0073
     28 C          -6.5987   -0.8619    0.6286 C.ar    1  UNL1       -0.0361
     29 C          -5.8411   -0.4760    1.7560 C.ar    1  UNL1        0.0028
     30 N          -4.5173   -0.2024    1.4171 N.ar    1  UNL1       -0.3598
     31 C          -4.5319   -0.4367    0.0708 C.ar    1  UNL1        0.0614
     32 H          -1.9266    3.9291    1.5627 H       1  UNL1        0.0350
     33 H          -1.6325    4.4598   -0.1207 H       1  UNL1        0.0350
     34 H          -3.5645    2.5755   -0.0497 H       1  UNL1        0.0581
     35 H          -1.4772   -1.8971   -0.7804 H       1  UNL1        0.0630
     36 H           2.1285    3.0115   -0.4230 H       1  UNL1        0.0836
     37 H           6.9059    2.4265    0.4122 H       1  UNL1        0.0654
     38 H           7.6925   -0.1519    0.8680 H       1  UNL1        0.0807
     39 H           5.6364   -1.5573    0.7743 H       1  UNL1        0.1654
     40 H           4.2522   -2.9450    0.3501 H       1  UNL1        0.0581
     41 H           2.1373   -4.4842    0.8057 H       1  UNL1        0.0350
     42 H           2.4819   -4.4030   -0.9481 H       1  UNL1        0.0350
     43 H           0.0054   -3.5316   -0.4636 H       1  UNL1        0.0581
     44 H           0.5965    3.4715    0.9784 H       1  UNL1        0.0581
     45 H          -6.4926   -1.3775   -2.4884 H       1  UNL1        0.0700
     46 H          -7.6482   -1.1244    0.6413 H       1  UNL1        0.0639
     47 H          -6.1474   -0.3746    2.7893 H       1  UNL1        0.0807
     48 H          -3.7313    0.0938    1.9844 H       1  UNL1        0.1654
@<TRIPOS>BOND
     1     1     2    1
     2     2     3    2
     3     3     4   ar
     4     4     5   ar
     5     5     6   ar
     6     6     7   ar
     7     7     8   ar
     8     8     9   ar
     9     9    10   ar
    10    10    11   ar
    11    11    12   ar
    12    12    13   ar
    13    13    14   ar
    14    14    15   ar
    15    15    16   ar
    16    16    17   ar
    17    17    18    2
    18    18    19    1
    19    19    20    1
    20    20    21    2
    21     7    22   ar
    22    22    23    2
    23     4    24    1
    24    24    25   ar
    25    25    26   ar
    26    26    27   ar
    27    27    28   ar
    28    28    29   ar
    29    29    30   ar
    30    30    31   ar
    31    23     1    1
    32    31    24   ar
    33    22     3   ar
    34    31    27   ar
    35    21     6   ar
    36    16     8   ar
    37    21    17   ar
    38    15    11   ar
    39     1    32    1
    40     1    33    1
    41     2    34    1
    42     5    35    1
    43     9    36    1
    44    12    37    1
    45    13    38    1
    46    14    39    1
    47    18    40    1
    48    19    41    1
    49    19    42    1
    50    20    43    1
    51    23    44    1
    52    26    45    1
    53    28    46    1
    54    29    47    1
    55    30    48    1
