@<TRIPOS>MOLECULE
*****
 47 54 0 0 0
SMALL
GASTEIGER

@<TRIPOS>ATOM
      1 C           1.4583    0.2243   -3.9079 C.3     1  UNL1       -0.0148
      2 C           2.4546   -0.1190   -2.8511 C.2     1  UNL1       -0.0719
      3 C           1.8351   -0.2513   -1.6661 C.ar    1  UNL1       -0.0129
      4 C           2.4499   -0.4437   -0.3594 C.ar    1  UNL1        0.0003
      5 C           1.6392   -0.3379    0.7164 C.ar    1  UNL1       -0.0445
      6 C           0.1899   -0.1224    0.5825 C.ar    1  UNL1       -0.0069
      7 C          -0.6548    0.0200    1.6832 C.ar    1  UNL1        0.0078
      8 C          -0.2908    0.0846    3.0087 C.ar    1  UNL1        0.0100
      9 N          -1.4424    0.2384    3.7432 N.ar    1  UNL1       -0.3659
     10 C          -2.5315    0.2627    2.9053 C.ar    1  UNL1        0.0101
     11 C          -2.0779    0.1328    1.6126 C.ar    1  UNL1        0.0098
     12 C          -2.8559    0.0731    0.4218 C.ar    1  UNL1        0.0207
     13 C          -2.0040   -0.0896   -0.7306 C.ar    1  UNL1        0.0112
     14 C          -2.7304   -0.2893   -1.9058 C.ar    1  UNL1        0.0367
     15 N          -4.0786   -0.2501   -2.0452 N.ar    1  UNL1       -0.2528
     16 C          -4.8146   -0.0278   -0.9490 C.ar    1  UNL1        0.0898
     17 C          -6.1922    0.0275   -1.0949 C.ar    1  UNL1       -0.0328
     18 C          -7.0256    0.2356   -0.0032 C.ar    1  UNL1       -0.0415
     19 C          -6.4322    0.3813    1.2286 C.ar    1  UNL1        0.0284
     20 N          -5.0979    0.3338    1.4158 N.ar    1  UNL1       -0.2528
     21 C          -4.2809    0.1353    0.3413 C.ar    1  UNL1        0.0975
     22 C          -0.5301   -0.0962   -0.6611 C.ar    1  UNL1       -0.0006
     23 C           0.3873   -0.0524   -1.8423 C.ar    1  UNL1       -0.0128
     24 C           0.1776    0.2828   -3.1294 C.2     1  UNL1       -0.0719
     25 C           3.8255   -0.7189   -0.1249 C.ar    1  UNL1        0.0627
     26 S           4.6689   -2.1169   -0.7241 S.2     1  UNL1       -0.0923
     27 C           6.1826   -1.6542    0.0028 C.ar    1  UNL1       -0.0129
     28 C           5.9838   -0.4895    0.6544 C.ar    1  UNL1        0.0278
     29 C           6.6840    0.4463    1.4311 C.ar    1  UNL1       -0.0156
     30 C           5.7379    1.4289    1.7507 C.ar    1  UNL1        0.0932
     31 O           4.4763    1.1922    1.2362 O.2     1  UNL1       -0.4618
     32 C           4.7078    0.0162    0.5865 C.ar    1  UNL1        0.1495
     33 H           1.4164   -0.5446   -4.6845 H       1  UNL1        0.0350
     34 H           1.6853    1.1941   -4.3604 H       1  UNL1        0.0350
     35 H           3.5181   -0.1743   -3.0266 H       1  UNL1        0.0581
     36 H           2.0352   -0.4583    1.7193 H       1  UNL1        0.0630
     37 H           0.6674    0.0481    3.5082 H       1  UNL1        0.0813
     38 H          -1.4857    0.3180    4.7510 H       1  UNL1        0.1648
     39 H          -3.5251    0.3670    3.3193 H       1  UNL1        0.0813
     40 H          -2.2436   -0.5583   -2.8356 H       1  UNL1        0.0836
     41 H          -6.6233   -0.0984   -2.0849 H       1  UNL1        0.0640
     42 H          -8.1022    0.2783   -0.1175 H       1  UNL1        0.0633
     43 H          -7.0229    0.5444    2.1252 H       1  UNL1        0.0830
     44 H          -0.7384    0.6090   -3.5923 H       1  UNL1        0.0581
     45 H           7.0690   -2.2623   -0.1061 H       1  UNL1        0.0701
     46 H           7.7215    0.4407    1.7322 H       1  UNL1        0.0655
     47 H           5.8093    2.3426    2.3264 H       1  UNL1        0.1030
@<TRIPOS>BOND
     1     1     2    1
     2     2     3    2
     3     3     4   ar
     4     4     5   ar
     5     5     6   ar
     6     6     7   ar
     7     7     8   ar
     8     8     9   ar
     9     9    10   ar
    10    10    11   ar
    11    11    12   ar
    12    12    13   ar
    13    13    14   ar
    14    14    15   ar
    15    15    16   ar
    16    16    17   ar
    17    17    18   ar
    18    18    19   ar
    19    19    20   ar
    20    20    21   ar
    21    13    22   ar
    22    22    23   ar
    23    23    24    2
    24     4    25    1
    25    25    26   ar
    26    26    27   ar
    27    27    28   ar
    28    28    29   ar
    29    29    30   ar
    30    30    31   ar
    31    31    32   ar
    32    24     1    1
    33    32    25   ar
    34    23     3   ar
    35    32    28   ar
    36    22     6   ar
    37    11     7   ar
    38    21    12   ar
    39    21    16   ar
    40     1    33    1
    41     1    34    1
    42     2    35    1
    43     5    36    1
    44     8    37    1
    45     9    38    1
    46    10    39    1
    47    14    40    1
    48    17    41    1
    49    18    42    1
    50    19    43    1
    51    24    44    1
    52    27    45    1
    53    29    46    1
    54    30    47    1
