@<TRIPOS>MOLECULE
*****
 47 54 0 0 0
SMALL
GASTEIGER

@<TRIPOS>ATOM
      1 C           1.5974   -2.9191   -2.4128 C.3     1  UNL1       -0.0148
      2 C           2.5667   -1.9813   -1.7683 C.2     1  UNL1       -0.0719
      3 C           1.9049   -1.0641   -1.0428 C.ar    1  UNL1       -0.0119
      4 C           2.4566    0.0282   -0.2534 C.ar    1  UNL1        0.0105
      5 C           1.5774    0.8236    0.3958 C.ar    1  UNL1       -0.0435
      6 C           0.1247    0.5960    0.3335 C.ar    1  UNL1       -0.0055
      7 C          -0.7925    1.4003    1.0104 C.ar    1  UNL1        0.0078
      8 C          -0.5304    2.4828    1.8168 C.ar    1  UNL1        0.0100
      9 N          -1.7388    2.9608    2.2674 N.ar    1  UNL1       -0.3659
     10 C          -2.7665    2.1969    1.7592 C.ar    1  UNL1        0.0101
     11 C          -2.2059    1.2170    0.9739 C.ar    1  UNL1        0.0095
     12 C          -2.8651    0.1925    0.2444 C.ar    1  UNL1        0.0142
     13 C          -4.2487   -0.0506    0.1597 C.ar    1  UNL1       -0.0252
     14 C          -5.4155    0.6551    0.7778 C.3     1  UNL1       -0.0079
     15 C          -6.5717   -0.1581    0.2445 C.2     1  UNL1       -0.0791
     16 C          -6.1697   -1.1644   -0.5464 C.2     1  UNL1       -0.0565
     17 C          -4.7226   -1.1079   -0.6071 C.ar    1  UNL1       -0.0031
     18 C          -3.8205   -1.8956   -1.2681 C.ar    1  UNL1        0.0357
     19 N          -2.4817   -1.6865   -1.2056 N.ar    1  UNL1       -0.2537
     20 C          -1.9569   -0.6673   -0.4719 C.ar    1  UNL1        0.0802
     21 C          -0.5199   -0.4564   -0.4155 C.ar    1  UNL1        0.0161
     22 C           0.4610   -1.3228   -1.1377 C.ar    1  UNL1       -0.0114
     23 C           0.2813   -2.3946   -1.9307 C.2     1  UNL1       -0.0719
     24 C           3.8944    0.3293   -0.1559 C.ar    1  UNL1        0.0996
     25 N           4.6339    0.4715   -1.3055 N.ar    1  UNL1       -0.2527
     26 C           5.9742    0.7445   -1.2632 C.ar    1  UNL1        0.0304
     27 C           6.7645    0.9075   -0.1313 C.ar    1  UNL1       -0.0153
     28 C           6.0531    0.7630    1.0742 C.ar    1  UNL1        0.1034
     29 N           6.5841    0.8693    2.3029 N.ar    1  UNL1       -0.1907
     30 S           5.3464    0.6039    3.3755 S.2     1  UNL1        0.1165
     31 N           4.0810    0.3604    2.3337 N.ar    1  UNL1       -0.1886
     32 C           4.5748    0.4650    1.0848 C.ar    1  UNL1        0.1257
     33 H           1.7595   -3.9474   -2.0770 H       1  UNL1        0.0350
     34 H           1.6663   -2.8718   -3.5034 H       1  UNL1        0.0350
     35 H           3.6369   -2.0458   -1.8919 H       1  UNL1        0.0581
     36 H           1.9226    1.6671    0.9833 H       1  UNL1        0.0631
     37 H           0.3886    2.9643    2.1212 H       1  UNL1        0.0813
     38 H          -1.8552    3.7557    2.8830 H       1  UNL1        0.1648
     39 H          -3.7852    2.4415    2.0194 H       1  UNL1        0.0813
     40 H          -5.3871    0.6018    1.8698 H       1  UNL1        0.0356
     41 H          -5.4899    1.6903    0.4330 H       1  UNL1        0.0356
     42 H          -7.6032    0.0596    0.4831 H       1  UNL1        0.0575
     43 H          -6.7847   -1.8906   -1.0524 H       1  UNL1        0.0621
     44 H          -4.1311   -2.7345   -1.8812 H       1  UNL1        0.0836
     45 H          -0.6591   -2.8453   -2.2044 H       1  UNL1        0.0581
     46 H           6.4291    0.8346   -2.2498 H       1  UNL1        0.0830
     47 H           7.8226    1.1214   -0.1709 H       1  UNL1        0.0655
@<TRIPOS>BOND
     1     1     2    1
     2     2     3    2
     3     3     4   ar
     4     4     5   ar
     5     5     6   ar
     6     6     7   ar
     7     7     8   ar
     8     8     9   ar
     9     9    10   ar
    10    10    11   ar
    11    11    12   ar
    12    12    13   ar
    13    13    14    1
    14    14    15    1
    15    15    16    2
    16    16    17    1
    17    17    18   ar
    18    18    19   ar
    19    19    20   ar
    20    20    21   ar
    21    21    22   ar
    22    22    23    2
    23     4    24    1
    24    24    25   ar
    25    25    26   ar
    26    26    27   ar
    27    27    28   ar
    28    28    29   ar
    29    29    30   ar
    30    30    31   ar
    31    31    32   ar
    32    23     1    1
    33    32    24   ar
    34    22     3   ar
    35    32    28   ar
    36    21     6   ar
    37    11     7   ar
    38    20    12   ar
    39    17    13   ar
    40     1    33    1
    41     1    34    1
    42     2    35    1
    43     5    36    1
    44     8    37    1
    45     9    38    1
    46    10    39    1
    47    14    40    1
    48    14    41    1
    49    15    42    1
    50    16    43    1
    51    18    44    1
    52    23    45    1
    53    26    46    1
    54    27    47    1
