@<TRIPOS>MOLECULE
*****
 48 55 0 0 0
SMALL
GASTEIGER

@<TRIPOS>ATOM
      1 C           2.2060   -3.5098   -1.0987 C.3     1  UNL1        0.0000
      2 C           3.1860   -2.4429   -0.7312 C.2     1  UNL1        0.0000
      3 C           2.5327   -1.3491   -0.3045 C.ar    1  UNL1        0.0000
      4 C           3.0580   -0.0385    0.0311 C.ar    1  UNL1        0.0000
      5 C           2.1385    0.9509    0.1355 C.ar    1  UNL1        0.0000
      6 C           0.6507    0.7712   -0.0082 C.ar    1  UNL1        0.0000
      7 C          -0.2209    1.8896   -0.0578 C.ar    1  UNL1        0.0000
      8 C           0.2735    3.2158   -0.2164 C.ar    1  UNL1        0.0000
      9 C          -0.5454    4.3385   -0.1908 C.ar    1  UNL1        0.0000
     10 C          -1.8920    4.1678    0.0217 C.ar    1  UNL1        0.0000
     11 C          -2.4063    2.8746    0.1431 C.ar    1  UNL1        0.0000
     12 C          -1.6311    1.6887    0.0363 C.ar    1  UNL1        0.0000
     13 C          -2.2028    0.3472    0.1136 C.ar    1  UNL1        0.0000
     14 C          -3.6157   -0.0041    0.0261 C.ar    1  UNL1        0.0000
     15 SI         -5.1292    0.9952   -0.6778 Si      1  UNL1        0.0000
     16 C          -6.2611   -0.4493   -0.3534 C.2     1  UNL1        0.0000
     17 C          -5.6184   -1.5056    0.1659 C.2     1  UNL1        0.0000
     18 C          -4.1793   -1.2859    0.3302 C.ar    1  UNL1        0.0000
     19 C          -3.2961   -2.2814    0.7634 C.ar    1  UNL1        0.0000
     20 N          -3.6199   -3.5161    1.1852 N.ar    1  UNL1        0.0000
     21 S          -2.2045   -4.2497    1.6190 S.2     1  UNL1        0.0000
     22 N          -1.1291   -3.0548    1.2477 N.ar    1  UNL1        0.0000
     23 C          -1.8180   -2.0119    0.7432 C.ar    1  UNL1        0.0000
     24 C          -1.2732   -0.7390    0.2752 C.ar    1  UNL1        0.0000
     25 C           0.1194   -0.5422    0.0387 C.ar    1  UNL1        0.0000
     26 C           1.0935   -1.6124   -0.3095 C.ar    1  UNL1        0.0000
     27 C           0.8963   -2.8330   -0.8410 C.2     1  UNL1        0.0000
     28 C           4.4926    0.2829    0.2673 C.ar    1  UNL1        0.0000
     29 N           4.8898    1.5484    0.0760 N.ar    1  UNL1        0.0000
     30 C           6.1794    1.7705    0.3147 C.ar    1  UNL1        0.0000
     31 N           7.0685    0.8696    0.7203 N.ar    1  UNL1        0.0000
     32 C           6.5600   -0.3480    0.8833 C.ar    1  UNL1        0.0000
     33 N           5.2962   -0.7042    0.6744 N.ar    1  UNL1        0.0000
     34 H           2.3039   -3.7845   -2.1530 H       1  UNL1        0.0000
     35 H           2.3262   -4.3984   -0.4725 H       1  UNL1        0.0000
     36 H           4.2524   -2.5439   -0.8612 H       1  UNL1        0.0000
     37 H           2.4773    1.9375    0.4326 H       1  UNL1        0.0000
     38 H           1.3310    3.4055   -0.3840 H       1  UNL1        0.0000
     39 H          -0.1221    5.3320   -0.3069 H       1  UNL1        0.0000
     40 H          -2.5501    5.0285    0.1059 H       1  UNL1        0.0000
     41 H          -3.4544    2.8331    0.4036 H       1  UNL1        0.0000
     42 H          -4.9742    1.2793   -2.1249 H       1  UNL1        0.0000
     43 H          -5.5129    2.1481    0.1742 H       1  UNL1        0.0000
     44 H          -7.3176   -0.3921   -0.5677 H       1  UNL1        0.0000
     45 H          -6.0860   -2.4461    0.4300 H       1  UNL1        0.0000
     46 H          -0.0499   -3.2904   -1.0816 H       1  UNL1        0.0000
     47 H           6.5390    2.7829    0.1654 H       1  UNL1        0.0000
     48 H           7.2396   -1.1245    1.2176 H       1  UNL1        0.0000
@<TRIPOS>BOND
     1     1     2    1
     2     2     3    2
     3     3     4   ar
     4     4     5   ar
     5     5     6   ar
     6     6     7   ar
     7     7     8   ar
     8     8     9   ar
     9     9    10   ar
    10    10    11   ar
    11    11    12   ar
    12    12    13   ar
    13    13    14   ar
    14    14    15    1
    15    15    16    1
    16    16    17    2
    17    17    18    1
    18    18    19   ar
    19    19    20   ar
    20    20    21   ar
    21    21    22   ar
    22    22    23   ar
    23    23    24   ar
    24    24    25   ar
    25    25    26   ar
    26    26    27    2
    27     4    28    1
    28    28    29   ar
    29    29    30   ar
    30    30    31   ar
    31    31    32   ar
    32    32    33   ar
    33    27     1    1
    34    33    28   ar
    35    26     3   ar
    36    25     6   ar
    37    12     7   ar
    38    24    13   ar
    39    18    14   ar
    40    23    19   ar
    41     1    34    1
    42     1    35    1
    43     2    36    1
    44     5    37    1
    45     8    38    1
    46     9    39    1
    47    10    40    1
    48    11    41    1
    49    15    42    1
    50    15    43    1
    51    16    44    1
    52    17    45    1
    53    27    46    1
    54    30    47    1
    55    32    48    1
