@<TRIPOS>MOLECULE
*****
 50 57 0 0 0
SMALL
GASTEIGER

@<TRIPOS>ATOM
      1 C           1.2414   -3.6462    0.8189 C.3     1  UNL1        0.0000
      2 C           2.2369   -2.6138    0.3869 C.2     1  UNL1        0.0000
      3 C           1.5960   -1.4864    0.0381 C.ar    1  UNL1        0.0000
      4 C           2.1481   -0.2328   -0.4414 C.ar    1  UNL1        0.0000
      5 C           1.2813    0.7658   -0.7343 C.ar    1  UNL1        0.0000
      6 C          -0.2127    0.6565   -0.6093 C.ar    1  UNL1        0.0000
      7 C          -1.0812    1.7388   -0.9484 C.ar    1  UNL1        0.0000
      8 C          -0.6343    2.9934   -1.4415 C.ar    1  UNL1        0.0000
      9 C          -1.5109    4.0333   -1.7629 C.ar    1  UNL1        0.0000
     10 C          -2.8742    3.8598   -1.6047 C.ar    1  UNL1        0.0000
     11 C          -3.3615    2.6464   -1.1264 C.ar    1  UNL1        0.0000
     12 C          -2.4935    1.5800   -0.7951 C.ar    1  UNL1        0.0000
     13 C          -3.0332    0.3464   -0.3086 C.ar    1  UNL1        0.0000
     14 C          -4.3427   -0.1944   -0.0222 C.ar    1  UNL1        0.0000
     15 C          -5.6834    0.2453   -0.0897 C.ar    1  UNL1        0.0000
     16 C          -6.7191   -0.6216    0.2958 C.ar    1  UNL1        0.0000
     17 C          -6.4456   -1.9120    0.7450 C.ar    1  UNL1        0.0000
     18 C          -5.1320   -2.3758    0.8233 C.ar    1  UNL1        0.0000
     19 C          -4.1287   -1.4895    0.4331 C.ar    1  UNL1        0.0000
     20 O          -2.8075   -1.7752    0.4464 O.2     1  UNL1        0.0000
     21 C          -2.1361   -0.6764    0.0014 C.ar    1  UNL1        0.0000
     22 C          -0.7498   -0.5715   -0.1304 C.ar    1  UNL1        0.0000
     23 C           0.1595   -1.6752    0.2028 C.ar    1  UNL1        0.0000
     24 C          -0.0616   -2.9210    0.6564 C.2     1  UNL1        0.0000
     25 C           3.5459    0.0387   -0.5867 C.ar    1  UNL1        0.0000
     26 S           4.2671    0.1157   -2.1727 S.2     1  UNL1        0.0000
     27 C           5.8464    0.4320   -1.5552 C.ar    1  UNL1        0.0000
     28 C           5.8027    0.4659   -0.1968 C.ar    1  UNL1        0.0000
     29 SI          7.0389    0.7351    1.1961 Si      1  UNL1        0.0000
     30 C           5.6024    0.5048    2.4372 C.2     1  UNL1        0.0000
     31 C           4.4339    0.2704    1.8003 C.2     1  UNL1        0.0000
     32 C           4.5181    0.2440    0.3679 C.ar    1  UNL1        0.0000
     33 H           1.4027   -3.9391    1.8604 H       1  UNL1        0.0000
     34 H           1.2839   -4.5297    0.1755 H       1  UNL1        0.0000
     35 H           3.3045   -2.7724    0.3630 H       1  UNL1        0.0000
     36 H           1.6869    1.7120   -1.0705 H       1  UNL1        0.0000
     37 H           0.4214    3.1971   -1.5939 H       1  UNL1        0.0000
     38 H          -1.1200    4.9758   -2.1378 H       1  UNL1        0.0000
     39 H          -3.5610    4.6644   -1.8534 H       1  UNL1        0.0000
     40 H          -4.4346    2.5543   -1.0202 H       1  UNL1        0.0000
     41 H          -5.9434    1.2398   -0.4325 H       1  UNL1        0.0000
     42 H          -7.7504   -0.2786    0.2419 H       1  UNL1        0.0000
     43 H          -7.2636   -2.5664    1.0382 H       1  UNL1        0.0000
     44 H          -4.8950   -3.3747    1.1691 H       1  UNL1        0.0000
     45 H          -1.0180   -3.3686    0.8761 H       1  UNL1        0.0000
     46 H           6.6836    0.5651   -2.2267 H       1  UNL1        0.0000
     47 H           7.5844    2.1137    1.2629 H       1  UNL1        0.0000
     48 H           8.0409   -0.3510    1.3346 H       1  UNL1        0.0000
     49 H           5.7713    0.5665    3.5000 H       1  UNL1        0.0000
     50 H           3.4958    0.1115    2.3209 H       1  UNL1        0.0000
@<TRIPOS>BOND
     1     1     2    1
     2     2     3    2
     3     3     4   ar
     4     4     5   ar
     5     5     6   ar
     6     6     7   ar
     7     7     8   ar
     8     8     9   ar
     9     9    10   ar
    10    10    11   ar
    11    11    12   ar
    12    12    13   ar
    13    13    14   ar
    14    14    15   ar
    15    15    16   ar
    16    16    17   ar
    17    17    18   ar
    18    18    19   ar
    19    19    20   ar
    20    20    21   ar
    21    21    22   ar
    22    22    23   ar
    23    23    24    2
    24     4    25    1
    25    25    26   ar
    26    26    27   ar
    27    27    28   ar
    28    28    29    1
    29    29    30    1
    30    30    31    2
    31    31    32    1
    32    24     1    1
    33    32    25   ar
    34    23     3   ar
    35    32    28   ar
    36    22     6   ar
    37    12     7   ar
    38    21    13   ar
    39    19    14   ar
    40     1    33    1
    41     1    34    1
    42     2    35    1
    43     5    36    1
    44     8    37    1
    45     9    38    1
    46    10    39    1
    47    11    40    1
    48    15    41    1
    49    16    42    1
    50    17    43    1
    51    18    44    1
    52    24    45    1
    53    27    46    1
    54    29    47    1
    55    29    48    1
    56    30    49    1
    57    31    50    1
