@<TRIPOS>MOLECULE
*****
 49 56 0 0 0
SMALL
GASTEIGER

@<TRIPOS>ATOM
      1 C          -0.0940    3.4721    2.6320 C.3     1  UNL1        0.0000
      2 C          -1.5156    3.0951    2.3612 C.2     1  UNL1        0.0000
      3 C          -1.5572    2.0066    1.5748 C.ar    1  UNL1        0.0000
      4 C          -2.7354    1.3139    1.0679 C.ar    1  UNL1        0.0000
      5 C          -2.5188    0.2066    0.3242 C.ar    1  UNL1        0.0000
      6 C          -1.1634   -0.2606    0.0026 C.ar    1  UNL1        0.0000
      7 C          -0.9108   -1.4206   -0.7161 C.ar    1  UNL1        0.0000
      8 C          -1.8169   -2.3465   -1.1670 C.ar    1  UNL1        0.0000
      9 O          -1.1549   -3.4078   -1.7069 O.2     1  UNL1        0.0000
     10 C           0.1801   -3.1453   -1.6041 C.ar    1  UNL1        0.0000
     11 C           0.3851   -1.8925   -1.0786 C.ar    1  UNL1        0.0000
     12 C           1.6188   -1.2469   -0.7766 C.ar    1  UNL1        0.0000
     13 C           1.3907   -0.1316    0.1044 C.ar    1  UNL1        0.0000
     14 N           2.4649    0.4550    0.6605 N.ar    1  UNL1        0.0000
     15 C           3.7203    0.0035    0.4207 C.ar    1  UNL1        0.0000
     16 C           4.0678   -0.9956   -0.4697 C.ar    1  UNL1        0.0000
     17 C           5.4588   -1.3374   -0.6379 C.ar    1  UNL1        0.0000
     18 C           5.9499   -2.2664   -1.5707 C.ar    1  UNL1        0.0000
     19 C           4.9248   -2.7512   -2.3694 C.ar    1  UNL1        0.0000
     20 C           5.1856   -3.5770   -3.4355 C.ar    1  UNL1        0.0000
     21 S           3.7631   -3.8824   -4.3398 S.2     1  UNL1        0.0000
     22 C           2.8139   -2.8947   -3.3004 C.ar    1  UNL1        0.0000
     23 C           3.5208   -2.4358   -2.2119 C.ar    1  UNL1        0.0000
     24 C           2.9836   -1.5938   -1.1744 C.ar    1  UNL1        0.0000
     25 C           0.0601    0.3609    0.4303 C.ar    1  UNL1        0.0000
     26 C          -0.1865    1.5693    1.2756 C.ar    1  UNL1        0.0000
     27 C           0.6617    2.4215    1.8789 C.2     1  UNL1        0.0000
     28 C          -4.1011    1.7066    1.3380 C.2     1  UNL1        0.0000
     29 C          -4.9582    1.1637    2.2269 C.2     1  UNL1        0.0000
     30 C          -6.2785    1.7732    2.2690 C.2     1  UNL1        0.0000
     31 C          -6.4674    2.7958    1.4151 C.2     1  UNL1        0.0000
     32 SI         -4.9158    3.1367    0.3983 Si      1  UNL1        0.0000
     33 H           0.1298    3.4288    3.7018 H       1  UNL1        0.0000
     34 H           0.1300    4.4715    2.2481 H       1  UNL1        0.0000
     35 H          -2.3637    3.6334    2.7555 H       1  UNL1        0.0000
     36 H          -3.3586   -0.3591   -0.0659 H       1  UNL1        0.0000
     37 H          -2.8937   -2.4396   -1.1468 H       1  UNL1        0.0000
     38 H           0.8159   -3.9590   -1.9213 H       1  UNL1        0.0000
     39 H           4.4810    0.5348    0.9901 H       1  UNL1        0.0000
     40 H           6.1975   -0.8343   -0.0097 H       1  UNL1        0.0000
     41 H           7.0020   -2.4922   -1.6816 H       1  UNL1        0.0000
     42 H           6.1317   -3.9858   -3.7635 H       1  UNL1        0.0000
     43 H           1.7907   -2.7066   -3.5865 H       1  UNL1        0.0000
     44 H           1.7391    2.3853    1.8573 H       1  UNL1        0.0000
     45 H          -4.7094    0.3347    2.8785 H       1  UNL1        0.0000
     46 H          -7.0370    1.4085    2.9509 H       1  UNL1        0.0000
     47 H          -7.3642    3.3809    1.2871 H       1  UNL1        0.0000
     48 H          -5.1314    2.8404   -1.0408 H       1  UNL1        0.0000
     49 H          -4.3356    4.4640    0.7256 H       1  UNL1        0.0000
@<TRIPOS>BOND
     1     1     2    1
     2     2     3    2
     3     3     4   ar
     4     4     5   ar
     5     5     6   ar
     6     6     7   ar
     7     7     8   ar
     8     8     9   ar
     9     9    10   ar
    10    10    11   ar
    11    11    12   ar
    12    12    13   ar
    13    13    14   ar
    14    14    15   ar
    15    15    16   ar
    16    16    17   ar
    17    17    18   ar
    18    18    19   ar
    19    19    20   ar
    20    20    21   ar
    21    21    22   ar
    22    22    23   ar
    23    23    24   ar
    24    13    25   ar
    25    25    26   ar
    26    26    27    2
    27     4    28    1
    28    28    29    2
    29    29    30    1
    30    30    31    2
    31    31    32    1
    32    27     1    1
    33    32    28    1
    34    26     3   ar
    35    25     6   ar
    36    11     7   ar
    37    24    12   ar
    38    24    16   ar
    39    23    19   ar
    40     1    33    1
    41     1    34    1
    42     2    35    1
    43     5    36    1
    44     8    37    1
    45    10    38    1
    46    15    39    1
    47    17    40    1
    48    18    41    1
    49    20    42    1
    50    22    43    1
    51    27    44    1
    52    29    45    1
    53    30    46    1
    54    31    47    1
    55    32    48    1
    56    32    49    1
