@<TRIPOS>MOLECULE
*****
 48 55 0 0 0
SMALL
GASTEIGER

@<TRIPOS>ATOM
      1 C           2.1272   -2.9081   -1.3586 C.3     1  UNL1       -0.0148
      2 C           3.2041   -1.9401   -0.9803 C.2     1  UNL1       -0.0719
      3 C           2.6524   -0.8129   -0.5007 C.ar    1  UNL1       -0.0129
      4 C           3.3105    0.4392   -0.1651 C.ar    1  UNL1       -0.0018
      5 C           2.5138    1.5161    0.0194 C.ar    1  UNL1       -0.0446
      6 C           1.0393    1.4189   -0.0268 C.ar    1  UNL1       -0.0079
      7 C           0.1918    2.5334   -0.0147 C.ar    1  UNL1       -0.0025
      8 C           0.6301    3.8392   -0.0339 C.ar    1  UNL1       -0.0160
      9 S          -0.6683    4.9530    0.0008 S.2     1  UNL1       -0.1038
     10 C          -1.8263    3.6886    0.0416 C.ar    1  UNL1       -0.0159
     11 C          -1.2540    2.4369   -0.0345 C.ar    1  UNL1       -0.0006
     12 C          -1.9605    1.2075    0.0045 C.ar    1  UNL1        0.0154
     13 C          -3.3573    1.0581   -0.1352 C.ar    1  UNL1        0.0555
     14 N          -4.3372    1.9328   -0.5644 N.ar    1  UNL1       -0.3601
     15 C          -5.5694    1.3441   -0.5433 C.ar    1  UNL1        0.0028
     16 C          -5.3965    0.0501   -0.1239 C.ar    1  UNL1       -0.0361
     17 C          -4.0005   -0.1579    0.1059 C.ar    1  UNL1        0.0080
     18 C          -3.2264   -1.2569    0.5562 C.ar    1  UNL1       -0.0081
     19 C          -3.8983   -2.4402    0.9435 C.ar    1  UNL1       -0.0534
     20 C          -3.1976   -3.5134    1.4819 C.ar    1  UNL1       -0.0611
     21 C          -1.8290   -3.4063    1.6618 C.ar    1  UNL1       -0.0611
     22 C          -1.1604   -2.2435    1.2610 C.ar    1  UNL1       -0.0534
     23 C          -1.8115   -1.1489    0.6358 C.ar    1  UNL1       -0.0089
     24 C          -1.1328    0.0451    0.1895 C.ar    1  UNL1        0.0007
     25 C           0.3182    0.1723   -0.0374 C.ar    1  UNL1       -0.0015
     26 C           1.1953   -0.9592   -0.4662 C.ar    1  UNL1       -0.0129
     27 C           0.8830   -2.1395   -1.0325 C.2     1  UNL1       -0.0719
     28 C           4.7210    0.6381   -0.0560 C.ar    1  UNL1        0.0394
     29 C           5.5706    1.4527   -0.7890 C.ar    1  UNL1        0.0425
     30 N           6.9042    1.4382   -0.4266 N.ar    1  UNL1       -0.2551
     31 C           7.0634    0.6099    0.5804 C.ar    1  UNL1        0.0652
     32 S           5.6535   -0.1829    1.1433 S.2     1  UNL1       -0.0754
     33 H           2.1721   -3.1456   -2.4255 H       1  UNL1        0.0350
     34 H           2.1920   -3.8286   -0.7716 H       1  UNL1        0.0350
     35 H           4.2551   -2.1139   -1.1553 H       1  UNL1        0.0581
     36 H           2.9478    2.4782    0.2690 H       1  UNL1        0.0630
     37 H           1.6375    4.2282   -0.0601 H       1  UNL1        0.0700
     38 H          -2.8571    3.9780    0.1576 H       1  UNL1        0.0700
     39 H          -4.1663    2.8615   -0.9180 H       1  UNL1        0.1654
     40 H          -6.4553    1.8893   -0.8401 H       1  UNL1        0.0807
     41 H          -6.1890   -0.6772   -0.0084 H       1  UNL1        0.0639
     42 H          -4.9780   -2.5246    0.8533 H       1  UNL1        0.0624
     43 H          -3.7240   -4.4124    1.7893 H       1  UNL1        0.0618
     44 H          -1.2727   -4.2176    2.1240 H       1  UNL1        0.0618
     45 H          -0.0962   -2.1929    1.4826 H       1  UNL1        0.0624
     46 H          -0.1081   -2.5051   -1.2558 H       1  UNL1        0.0581
     47 H           5.2601    2.0847   -1.6129 H       1  UNL1        0.0841
     48 H           8.0295    0.4336    1.0349 H       1  UNL1        0.0907
@<TRIPOS>BOND
     1     1     2    1
     2     2     3    2
     3     3     4   ar
     4     4     5   ar
     5     5     6   ar
     6     6     7   ar
     7     7     8   ar
     8     8     9   ar
     9     9    10   ar
    10    10    11   ar
    11    11    12   ar
    12    12    13   ar
    13    13    14   ar
    14    14    15   ar
    15    15    16   ar
    16    16    17   ar
    17    17    18   ar
    18    18    19   ar
    19    19    20   ar
    20    20    21   ar
    21    21    22   ar
    22    22    23   ar
    23    23    24   ar
    24    24    25   ar
    25    25    26   ar
    26    26    27    2
    27     4    28    1
    28    28    29   ar
    29    29    30   ar
    30    30    31   ar
    31    31    32   ar
    32    27     1    1
    33    32    28   ar
    34    26     3   ar
    35    25     6   ar
    36    11     7   ar
    37    24    12   ar
    38    17    13   ar
    39    23    18   ar
    40     1    33    1
    41     1    34    1
    42     2    35    1
    43     5    36    1
    44     8    37    1
    45    10    38    1
    46    14    39    1
    47    15    40    1
    48    16    41    1
    49    19    42    1
    50    20    43    1
    51    21    44    1
    52    22    45    1
    53    27    46    1
    54    29    47    1
    55    31    48    1
