@<TRIPOS>MOLECULE
*****
 45 52 0 0 0
SMALL
GASTEIGER

@<TRIPOS>ATOM
      1 C           2.3026    3.1114    1.0599 C.3     1  UNL1        0.0000
      2 C           3.2276    1.9936    0.7008 C.2     1  UNL1        0.0000
      3 C           2.5123    0.9196    0.3276 C.ar    1  UNL1        0.0000
      4 C           2.9959   -0.4238    0.0595 C.ar    1  UNL1        0.0000
      5 C           2.0618   -1.3953   -0.0427 C.ar    1  UNL1        0.0000
      6 C           0.6126   -1.1102    0.0464 C.ar    1  UNL1        0.0000
      7 C          -0.3632   -2.1137    0.0969 C.ar    1  UNL1        0.0000
      8 C          -0.0555   -3.4527    0.2126 C.ar    1  UNL1        0.0000
      9 S          -1.4493   -4.4345    0.2631 S.2     1  UNL1        0.0000
     10 C          -2.4767   -3.0690    0.1320 C.ar    1  UNL1        0.0000
     11 C          -1.7995   -1.8700    0.0774 C.ar    1  UNL1        0.0000
     12 C          -2.4156   -0.5712   -0.0669 C.ar    1  UNL1        0.0000
     13 C          -3.8244   -0.2330   -0.1106 C.ar    1  UNL1        0.0000
     14 SI         -5.4020   -1.2697    0.2109 Si      1  UNL1        0.0000
     15 C          -6.4727    0.2155   -0.1226 C.2     1  UNL1        0.0000
     16 C          -5.7558    1.3089   -0.4246 C.2     1  UNL1        0.0000
     17 C          -4.3082    1.0725   -0.4091 C.ar    1  UNL1        0.0000
     18 C          -3.3631    2.0614   -0.7236 C.ar    1  UNL1        0.0000
     19 N          -3.6340    3.3193   -1.1141 N.ar    1  UNL1        0.0000
     20 S          -2.1851    4.0312   -1.4553 S.2     1  UNL1        0.0000
     21 N          -1.1578    2.7955   -1.0886 N.ar    1  UNL1        0.0000
     22 C          -1.8845    1.7545   -0.6371 C.ar    1  UNL1        0.0000
     23 C          -1.3740    0.4605   -0.1927 C.ar    1  UNL1        0.0000
     24 C           0.0583    0.2081    0.0236 C.ar    1  UNL1        0.0000
     25 C           1.0829    1.2473    0.3425 C.ar    1  UNL1        0.0000
     26 C           0.9568    2.4870    0.8500 C.2     1  UNL1        0.0000
     27 C           4.3734   -0.7828   -0.1102 C.ar    1  UNL1        0.0000
     28 C           5.2723   -0.3174   -1.0565 C.ar    1  UNL1        0.0000
     29 C           6.5737   -0.8797   -0.9157 C.ar    1  UNL1        0.0000
     30 C           6.6418   -1.7546    0.1432 C.ar    1  UNL1        0.0000
     31 S           5.1480   -1.8916    0.9608 S.2     1  UNL1        0.0000
     32 H           2.4466    3.9772    0.4074 H       1  UNL1        0.0000
     33 H           2.4365    3.4093    2.1040 H       1  UNL1        0.0000
     34 H           4.2998    2.0368    0.8181 H       1  UNL1        0.0000
     35 H           2.3657   -2.4124   -0.2632 H       1  UNL1        0.0000
     36 H           0.9089   -3.9349    0.2820 H       1  UNL1        0.0000
     37 H          -3.5264   -3.2915    0.0946 H       1  UNL1        0.0000
     38 H          -5.4790   -1.7291    1.6187 H       1  UNL1        0.0000
     39 H          -5.5811   -2.3317   -0.8093 H       1  UNL1        0.0000
     40 H          -7.5495    0.1564   -0.0731 H       1  UNL1        0.0000
     41 H          -6.1742    2.2800   -0.6583 H       1  UNL1        0.0000
     42 H           0.0402    2.9948    1.1029 H       1  UNL1        0.0000
     43 H           4.9991    0.3984   -1.8233 H       1  UNL1        0.0000
     44 H           7.4157   -0.6509   -1.5572 H       1  UNL1        0.0000
     45 H           7.4994   -2.3195    0.4818 H       1  UNL1        0.0000
@<TRIPOS>BOND
     1     1     2    1
     2     2     3    2
     3     3     4   ar
     4     4     5   ar
     5     5     6   ar
     6     6     7   ar
     7     7     8   ar
     8     8     9   ar
     9     9    10   ar
    10    10    11   ar
    11    11    12   ar
    12    12    13   ar
    13    13    14    1
    14    14    15    1
    15    15    16    2
    16    16    17    1
    17    17    18   ar
    18    18    19   ar
    19    19    20   ar
    20    20    21   ar
    21    21    22   ar
    22    22    23   ar
    23    23    24   ar
    24    24    25   ar
    25    25    26    2
    26     4    27    1
    27    27    28   ar
    28    28    29   ar
    29    29    30   ar
    30    30    31   ar
    31    26     1    1
    32    31    27   ar
    33    25     3   ar
    34    24     6   ar
    35    11     7   ar
    36    23    12   ar
    37    17    13   ar
    38    22    18   ar
    39     1    32    1
    40     1    33    1
    41     2    34    1
    42     5    35    1
    43     8    36    1
    44    10    37    1
    45    14    38    1
    46    14    39    1
    47    15    40    1
    48    16    41    1
    49    26    42    1
    50    28    43    1
    51    29    44    1
    52    30    45    1
