@<TRIPOS>MOLECULE
*****
 49 56 0 0 0
SMALL
GASTEIGER

@<TRIPOS>ATOM
      1 SI         -0.9796    4.2603   -0.4788 Si      1  UNL1        0.0000
      2 C          -1.9629    2.7260   -0.1628 C.2     1  UNL1        0.0000
      3 C          -1.1691    1.6472    0.0022 C.ar    1  UNL1        0.0000
      4 C          -1.6585    0.3252    0.3516 C.ar    1  UNL1        0.0000
      5 C          -0.7603   -0.6380    0.6358 C.ar    1  UNL1        0.0000
      6 C           0.7238   -0.4631    0.5535 C.ar    1  UNL1        0.0000
      7 C           1.5933   -1.5212    0.9268 C.ar    1  UNL1        0.0000
      8 C           1.1580   -2.7109    1.5770 C.ar    1  UNL1        0.0000
      9 C           2.0285   -3.7387    1.9396 C.ar    1  UNL1        0.0000
     10 C           3.3753   -3.6131    1.6691 C.ar    1  UNL1        0.0000
     11 C           3.8432   -2.4601    1.0415 C.ar    1  UNL1        0.0000
     12 C           2.9822   -1.3977    0.6608 C.ar    1  UNL1        0.0000
     13 C           3.5080   -0.2283   -0.0062 C.ar    1  UNL1        0.0000
     14 C           4.8626    0.1131   -0.4287 C.ar    1  UNL1        0.0000
     15 S           6.4538   -0.6390   -0.3311 S.2     1  UNL1        0.0000
     16 C           7.1704    0.6822   -1.1380 C.ar    1  UNL1        0.0000
     17 C           6.2738    1.6584   -1.4903 C.ar    1  UNL1        0.0000
     18 C           4.9527    1.3097   -1.0759 C.ar    1  UNL1        0.0000
     19 S           3.4229    2.0764   -1.2267 S.2     1  UNL1        0.0000
     20 C           2.6229    0.8225   -0.3238 C.ar    1  UNL1        0.0000
     21 C           1.2416    0.7593    0.0295 C.ar    1  UNL1        0.0000
     22 C           0.2883    1.9032   -0.1424 C.ar    1  UNL1        0.0000
     23 C           0.5623    3.2140   -0.3278 C.2     1  UNL1        0.0000
     24 C          -3.0723   -0.0370    0.4551 C.ar    1  UNL1        0.0000
     25 C          -3.8093   -0.1263    1.6623 C.ar    1  UNL1        0.0000
     26 C          -5.2045   -0.4774    1.7271 C.ar    1  UNL1        0.0000
     27 C          -6.0053   -0.7731    0.5982 C.ar    1  UNL1        0.0000
     28 C          -5.2601   -0.6758   -0.5701 C.ar    1  UNL1        0.0000
     29 C          -5.7209   -0.8953   -1.8422 C.ar    1  UNL1        0.0000
     30 N          -4.6546   -0.6921   -2.6942 N.ar    1  UNL1        0.0000
     31 C          -3.5270   -0.3480   -1.9781 C.ar    1  UNL1        0.0000
     32 C          -3.8779   -0.3290   -0.6501 C.ar    1  UNL1        0.0000
     33 H          -1.1640    4.7962   -1.8495 H       1  UNL1        0.0000
     34 H          -1.0915    5.2562    0.6144 H       1  UNL1        0.0000
     35 H          -3.0387    2.7582   -0.0854 H       1  UNL1        0.0000
     36 H          -1.1388   -1.6255    0.8719 H       1  UNL1        0.0000
     37 H           0.1157   -2.8584    1.8452 H       1  UNL1        0.0000
     38 H           1.6479   -4.6265    2.4372 H       1  UNL1        0.0000
     39 H           4.0682   -4.4030    1.9460 H       1  UNL1        0.0000
     40 H           4.9095   -2.4204    0.8617 H       1  UNL1        0.0000
     41 H           8.2363    0.6755   -1.3227 H       1  UNL1        0.0000
     42 H           6.5372    2.5684   -2.0145 H       1  UNL1        0.0000
     43 H           1.5104    3.7157   -0.3789 H       1  UNL1        0.0000
     44 H          -3.2959    0.0876    2.6002 H       1  UNL1        0.0000
     45 H          -5.6716   -0.5148    2.7119 H       1  UNL1        0.0000
     46 H          -7.0515   -1.0348    0.6597 H       1  UNL1        0.0000
     47 H          -6.6914   -1.1741   -2.2290 H       1  UNL1        0.0000
     48 H          -4.6923   -0.7832   -3.7010 H       1  UNL1        0.0000
     49 H          -2.5910   -0.1506   -2.4835 H       1  UNL1        0.0000
@<TRIPOS>BOND
     1     1     2    1
     2     2     3    2
     3     3     4   ar
     4     4     5   ar
     5     5     6   ar
     6     6     7   ar
     7     7     8   ar
     8     8     9   ar
     9     9    10   ar
    10    10    11   ar
    11    11    12   ar
    12    12    13   ar
    13    13    14   ar
    14    14    15   ar
    15    15    16   ar
    16    16    17   ar
    17    17    18   ar
    18    18    19   ar
    19    19    20   ar
    20    20    21   ar
    21    21    22   ar
    22    22    23    2
    23     4    24    1
    24    24    25   ar
    25    25    26   ar
    26    26    27   ar
    27    27    28   ar
    28    28    29   ar
    29    29    30   ar
    30    30    31   ar
    31    31    32   ar
    32    23     1    1
    33    32    24   ar
    34    22     3   ar
    35    32    28   ar
    36    21     6   ar
    37    12     7   ar
    38    20    13   ar
    39    18    14   ar
    40     1    33    1
    41     1    34    1
    42     2    35    1
    43     5    36    1
    44     8    37    1
    45     9    38    1
    46    10    39    1
    47    11    40    1
    48    16    41    1
    49    17    42    1
    50    23    43    1
    51    25    44    1
    52    26    45    1
    53    27    46    1
    54    29    47    1
    55    30    48    1
    56    31    49    1
