@<TRIPOS>MOLECULE
*****
 48 55 0 0 0
SMALL
GASTEIGER

@<TRIPOS>ATOM
      1 C          -1.6497   -2.7296    2.3074 C.3     1  UNL1       -0.0148
      2 C          -2.6762   -1.9206    1.5830 C.2     1  UNL1       -0.0719
      3 C          -2.0645   -1.0008    0.8202 C.ar    1  UNL1       -0.0135
      4 C          -2.6706    0.0901    0.0853 C.ar    1  UNL1       -0.0099
      5 C          -1.8474    1.0373   -0.4108 C.ar    1  UNL1       -0.0451
      6 C          -0.3773    0.9364   -0.2853 C.ar    1  UNL1       -0.0078
      7 C           0.4945    1.9623   -0.6744 C.ar    1  UNL1       -0.0025
      8 C           0.0624    3.2062   -1.0832 C.ar    1  UNL1       -0.0160
      9 S           1.3587    4.2510   -1.4630 S.2     1  UNL1       -0.1038
     10 C           2.5112    3.0435   -1.0825 C.ar    1  UNL1       -0.0159
     11 C           1.9450    1.8573   -0.6605 C.ar    1  UNL1       -0.0005
     12 C           2.6877    0.6709   -0.3200 C.ar    1  UNL1        0.0191
     13 C           4.1387    0.5684   -0.3443 C.ar    1  UNL1        0.0814
     14 N           4.9420    1.6355   -0.5639 N.ar    1  UNL1       -0.2543
     15 C           6.2918    1.5096   -0.5695 C.ar    1  UNL1        0.0283
     16 C           6.9523    0.3216   -0.3640 C.ar    1  UNL1       -0.0429
     17 C           6.1744   -0.7980   -0.1429 C.ar    1  UNL1       -0.0490
     18 C           4.7665   -0.6755   -0.1299 C.ar    1  UNL1        0.0292
     19 C           3.9318   -1.8127    0.0579 C.ar    1  UNL1        0.1096
     20 N           4.3679   -3.0799    0.1962 N.ar    1  UNL1       -0.1901
     21 S           3.0328   -4.0437    0.2770 S.2     1  UNL1        0.1165
     22 N           1.8525   -2.9008    0.1789 N.ar    1  UNL1       -0.1901
     23 C           2.4325   -1.6880    0.1165 C.ar    1  UNL1        0.1089
     24 C           1.7589   -0.4102    0.0309 C.ar    1  UNL1        0.0212
     25 C           0.3062   -0.2301    0.1894 C.ar    1  UNL1        0.0001
     26 C          -0.6099   -1.1625    0.9130 C.ar    1  UNL1       -0.0128
     27 C          -0.3686   -2.1046    1.8427 C.2     1  UNL1       -0.0719
     28 C          -4.1202    0.2514   -0.1237 C.ar    1  UNL1       -0.0173
     29 C          -4.7784   -0.5154   -1.0932 C.ar    1  UNL1       -0.0540
     30 C          -6.1527   -0.3702   -1.2915 C.ar    1  UNL1       -0.0612
     31 C          -6.8767    0.5392   -0.5210 C.ar    1  UNL1       -0.0617
     32 C          -6.2292    1.3032    0.4494 C.ar    1  UNL1       -0.0612
     33 C          -4.8550    1.1597    0.6493 C.ar    1  UNL1       -0.0540
     34 H          -1.7639   -2.6269    3.3905 H       1  UNL1        0.0350
     35 H          -1.7012   -3.7860    2.0290 H       1  UNL1        0.0350
     36 H          -3.7411   -2.0193    1.7307 H       1  UNL1        0.0581
     37 H          -2.2635    1.8702   -0.9663 H       1  UNL1        0.0630
     38 H          -0.9427    3.5906   -1.1767 H       1  UNL1        0.0700
     39 H           3.5486    3.3102   -1.2094 H       1  UNL1        0.0700
     40 H           6.8384    2.4309   -0.7524 H       1  UNL1        0.0830
     41 H           8.0342    0.2677   -0.3801 H       1  UNL1        0.0633
     42 H           6.6505   -1.7632    0.0155 H       1  UNL1        0.0625
     43 H           0.5894   -2.3938    2.2424 H       1  UNL1        0.0581
     44 H          -4.2218   -1.2287   -1.6969 H       1  UNL1        0.0624
     45 H          -6.6575   -0.9674   -2.0462 H       1  UNL1        0.0618
     46 H          -7.9468    0.6509   -0.6757 H       1  UNL1        0.0618
     47 H          -6.7943    2.0091    1.0524 H       1  UNL1        0.0618
     48 H          -4.3597    1.7547    1.4131 H       1  UNL1        0.0624
@<TRIPOS>BOND
     1     1     2    1
     2     2     3    2
     3     3     4   ar
     4     4     5   ar
     5     5     6   ar
     6     6     7   ar
     7     7     8   ar
     8     8     9   ar
     9     9    10   ar
    10    10    11   ar
    11    11    12   ar
    12    12    13   ar
    13    13    14   ar
    14    14    15   ar
    15    15    16   ar
    16    16    17   ar
    17    17    18   ar
    18    18    19   ar
    19    19    20   ar
    20    20    21   ar
    21    21    22   ar
    22    22    23   ar
    23    23    24   ar
    24    24    25   ar
    25    25    26   ar
    26    26    27    2
    27     4    28    1
    28    28    29   ar
    29    29    30   ar
    30    30    31   ar
    31    31    32   ar
    32    32    33   ar
    33    27     1    1
    34    33    28   ar
    35    26     3   ar
    36    25     6   ar
    37    11     7   ar
    38    24    12   ar
    39    18    13   ar
    40    23    19   ar
    41     1    34    1
    42     1    35    1
    43     2    36    1
    44     5    37    1
    45     8    38    1
    46    10    39    1
    47    15    40    1
    48    16    41    1
    49    17    42    1
    50    27    43    1
    51    29    44    1
    52    30    45    1
    53    31    46    1
    54    32    47    1
    55    33    48    1
