@<TRIPOS>MOLECULE
*****
 45 52 0 0 0
SMALL
GASTEIGER

@<TRIPOS>ATOM
      1 C          -0.1082    3.7714   -0.7229 C.3     1  UNL1       -0.0148
      2 C           1.1235    2.9704   -0.4486 C.2     1  UNL1       -0.0719
      3 C           0.7859    1.7067   -0.1436 C.ar    1  UNL1       -0.0129
      4 C           1.6668    0.5938    0.1861 C.ar    1  UNL1       -0.0030
      5 C           1.1032   -0.6108    0.4352 C.ar    1  UNL1       -0.0445
      6 C          -0.3597   -0.8200    0.3967 C.ar    1  UNL1       -0.0065
      7 C          -0.9604   -2.0742    0.6598 C.ar    1  UNL1       -0.0023
      8 C          -0.2874   -3.2371    0.9768 C.ar    1  UNL1       -0.0160
      9 S          -1.3533   -4.5786    1.2313 S.2     1  UNL1       -0.1038
     10 C          -2.7526   -3.6263    0.9233 C.ar    1  UNL1       -0.0158
     11 C          -2.3530   -2.3540    0.6446 C.ar    1  UNL1        0.0024
     12 C          -3.1756   -1.2520    0.3365 C.ar    1  UNL1        0.0514
     13 C          -4.5506   -1.2450    0.2574 C.ar    1  UNL1        0.1605
     14 O          -5.6232   -2.0638    0.3897 O.2     1  UNL1       -0.4607
     15 C          -6.6963   -1.2564    0.1407 C.ar    1  UNL1        0.0946
     16 C          -6.3426    0.0451   -0.1449 C.ar    1  UNL1        0.0002
     17 C          -4.9354    0.0128   -0.0593 C.ar    1  UNL1        0.0861
     18 N          -3.7993    0.7926   -0.1781 N.ar    1  UNL1       -0.3511
     19 C          -2.6743    0.0102    0.0664 C.ar    1  UNL1        0.0595
     20 C          -1.2769    0.2531    0.0866 C.ar    1  UNL1        0.0142
     21 C          -0.6743    1.5671   -0.1991 C.ar    1  UNL1       -0.0115
     22 C          -1.2006    2.7581   -0.5336 C.2     1  UNL1       -0.0719
     23 C           3.0923    0.6640    0.2495 C.ar    1  UNL1        0.0239
     24 S           3.8876    1.4244    1.5991 S.2     1  UNL1       -0.0958
     25 C           5.4687    1.1126    0.9758 C.ar    1  UNL1       -0.0163
     26 C           5.3639    0.4555   -0.2104 C.ar    1  UNL1       -0.0142
     27 C           6.2661   -0.0568   -1.1745 C.2     1  UNL1       -0.0574
     28 C           5.5636   -0.6249   -2.1815 C.2     1  UNL1       -0.0791
     29 C           4.0535   -0.5209   -1.9368 C.3     1  UNL1       -0.0075
     30 C           4.0395    0.1966   -0.6292 C.ar    1  UNL1       -0.0217
     31 H          -0.2099    4.5973   -0.0129 H       1  UNL1        0.0350
     32 H          -0.1067    4.1613   -1.7449 H       1  UNL1        0.0350
     33 H           2.1263    3.3679   -0.4937 H       1  UNL1        0.0581
     34 H           1.7319   -1.4585    0.6837 H       1  UNL1        0.0630
     35 H           0.7730   -3.4122    1.0832 H       1  UNL1        0.0700
     36 H          -3.7458   -4.0520    0.9668 H       1  UNL1        0.0700
     37 H          -7.6536   -1.7566    0.2051 H       1  UNL1        0.1030
     38 H          -7.0012    0.8690   -0.3743 H       1  UNL1        0.0670
     39 H          -3.8302    1.7754   -0.4054 H       1  UNL1        0.1660
     40 H          -2.2354    3.0125   -0.6672 H       1  UNL1        0.0581
     41 H           6.3503    1.4282    1.5148 H       1  UNL1        0.0699
     42 H           7.3431    0.0024   -1.1072 H       1  UNL1        0.0621
     43 H           5.9931   -1.0954   -3.0533 H       1  UNL1        0.0575
     44 H           3.6033   -1.5146   -1.8616 H       1  UNL1        0.0356
     45 H           3.5709    0.0616   -2.7264 H       1  UNL1        0.0356
@<TRIPOS>BOND
     1     1     2    1
     2     2     3    2
     3     3     4   ar
     4     4     5   ar
     5     5     6   ar
     6     6     7   ar
     7     7     8   ar
     8     8     9   ar
     9     9    10   ar
    10    10    11   ar
    11    11    12   ar
    12    12    13   ar
    13    13    14   ar
    14    14    15   ar
    15    15    16   ar
    16    16    17   ar
    17    17    18   ar
    18    18    19   ar
    19    19    20   ar
    20    20    21   ar
    21    21    22    2
    22     4    23    1
    23    23    24   ar
    24    24    25   ar
    25    25    26   ar
    26    26    27    1
    27    27    28    2
    28    28    29    1
    29    29    30    1
    30    22     1    1
    31    30    23   ar
    32    21     3   ar
    33    30    26   ar
    34    20     6   ar
    35    11     7   ar
    36    19    12   ar
    37    17    13   ar
    38     1    31    1
    39     1    32    1
    40     2    33    1
    41     5    34    1
    42     8    35    1
    43    10    36    1
    44    15    37    1
    45    16    38    1
    46    18    39    1
    47    22    40    1
    48    25    41    1
    49    27    42    1
    50    28    43    1
    51    29    44    1
    52    29    45    1
