@<TRIPOS>MOLECULE
*****
 44 50 0 0 0
SMALL
GASTEIGER

@<TRIPOS>ATOM
      1 C           0.8042   -2.3563    2.5063 C.3     1  UNL1       -0.0148
      2 C           1.9231   -1.8047    1.6803 C.2     1  UNL1       -0.0719
      3 C           1.4403   -0.9103    0.8017 C.ar    1  UNL1       -0.0120
      4 C           2.1696   -0.0169   -0.0838 C.ar    1  UNL1        0.0084
      5 C           1.4555    0.9321   -0.7297 C.ar    1  UNL1       -0.0436
      6 C          -0.0117    1.0364   -0.6003 C.ar    1  UNL1       -0.0078
      7 C          -0.7557    2.1080   -1.1211 C.ar    1  UNL1       -0.0025
      8 C          -0.1979    3.2202   -1.7139 C.ar    1  UNL1       -0.0160
      9 S          -1.3813    4.3603   -2.1977 S.2     1  UNL1       -0.1038
     10 C          -2.6570    3.3719   -1.6206 C.ar    1  UNL1       -0.0160
     11 C          -2.2018    2.1951   -1.0645 C.ar    1  UNL1       -0.0026
     12 C          -3.0579    1.1772   -0.5506 C.ar    1  UNL1       -0.0084
     13 C          -4.5103    1.2825   -0.5436 C.ar    1  UNL1       -0.0528
     14 C          -5.3764    0.2532   -0.1461 C.ar    1  UNL1       -0.0529
     15 C          -4.6718   -0.9032    0.1546 C.ar    1  UNL1       -0.0103
     16 C          -5.3348   -2.0747    0.4316 C.ar    1  UNL1       -0.0166
     17 S          -4.2398   -3.3806    0.5962 S.2     1  UNL1       -0.1039
     18 C          -2.8886   -2.3669    0.2844 C.ar    1  UNL1       -0.0160
     19 C          -3.2293   -1.0349    0.1798 C.ar    1  UNL1       -0.0026
     20 C          -2.2918    0.0276   -0.0730 C.ar    1  UNL1       -0.0008
     21 C          -0.8232    0.0430    0.0419 C.ar    1  UNL1       -0.0015
     22 C          -0.0239   -0.8732    0.9022 C.ar    1  UNL1       -0.0128
     23 C          -0.3852   -1.6344    1.9506 C.2     1  UNL1       -0.0719
     24 C           3.6325   -0.0207   -0.2930 C.ar    1  UNL1        0.0715
     25 C           4.5095    0.1913    0.7684 C.ar    1  UNL1       -0.0357
     26 C           5.8792    0.2028    0.5168 C.ar    1  UNL1       -0.0583
     27 C           6.3334    0.0103   -0.7820 C.ar    1  UNL1       -0.0436
     28 C           5.3943   -0.1796   -1.7815 C.ar    1  UNL1        0.0283
     29 N           4.0606   -0.1915   -1.5689 N.ar    1  UNL1       -0.2550
     30 H           0.7078   -3.4383    2.3789 H       1  UNL1        0.0350
     31 H           0.9467   -2.1200    3.5650 H       1  UNL1        0.0350
     32 H           2.9603   -2.0538    1.8419 H       1  UNL1        0.0581
     33 H           1.9625    1.6187   -1.3994 H       1  UNL1        0.0631
     34 H           0.8415    3.4564   -1.8905 H       1  UNL1        0.0700
     35 H          -3.6683    3.7304   -1.7416 H       1  UNL1        0.0700
     36 H          -4.9803    2.2060   -0.8781 H       1  UNL1        0.0624
     37 H          -6.4535    0.3509   -0.1654 H       1  UNL1        0.0624
     38 H          -6.3992   -2.2519    0.5038 H       1  UNL1        0.0699
     39 H          -1.9187   -2.8329    0.1929 H       1  UNL1        0.0700
     40 H          -1.3739   -1.7302    2.3712 H       1  UNL1        0.0581
     41 H           4.1367    0.3544    1.7743 H       1  UNL1        0.0639
     42 H           6.5837    0.3642    1.3276 H       1  UNL1        0.0619
     43 H           7.3929    0.0125   -1.0118 H       1  UNL1        0.0633
     44 H           5.6979   -0.3305   -2.8134 H       1  UNL1        0.0830
@<TRIPOS>BOND
     1     1     2    1
     2     2     3    2
     3     3     4   ar
     4     4     5   ar
     5     5     6   ar
     6     6     7   ar
     7     7     8   ar
     8     8     9   ar
     9     9    10   ar
    10    10    11   ar
    11    11    12   ar
    12    12    13   ar
    13    13    14   ar
    14    14    15   ar
    15    15    16   ar
    16    16    17   ar
    17    17    18   ar
    18    18    19   ar
    19    19    20   ar
    20    20    21   ar
    21    21    22   ar
    22    22    23    2
    23     4    24    1
    24    24    25   ar
    25    25    26   ar
    26    26    27   ar
    27    27    28   ar
    28    28    29   ar
    29    23     1    1
    30    29    24   ar
    31    22     3   ar
    32    21     6   ar
    33    11     7   ar
    34    20    12   ar
    35    19    15   ar
    36     1    30    1
    37     1    31    1
    38     2    32    1
    39     5    33    1
    40     8    34    1
    41    10    35    1
    42    13    36    1
    43    14    37    1
    44    16    38    1
    45    18    39    1
    46    23    40    1
    47    25    41    1
    48    26    42    1
    49    27    43    1
    50    28    44    1
