@<TRIPOS>MOLECULE
*****
 37 42 0 0 0
SMALL
GASTEIGER

@<TRIPOS>ATOM
      1 C          -0.1536   -2.9114   -2.3857 C.3     1  UNL1       -0.0148
      2 C           0.8480   -2.0094   -1.7276 C.2     1  UNL1       -0.0719
      3 C           0.2182   -1.1537   -0.9061 C.ar    1  UNL1       -0.0134
      4 C           0.7801   -0.1005   -0.0725 C.ar    1  UNL1       -0.0077
      5 C          -0.0704    0.6476    0.6682 C.ar    1  UNL1       -0.0451
      6 C          -1.5281    0.4239    0.6338 C.ar    1  UNL1       -0.0085
      7 C          -2.4616    1.1747    1.3715 C.ar    1  UNL1       -0.0031
      8 C          -2.1628    2.2216    2.2136 C.ar    1  UNL1       -0.0160
      9 S          -3.5737    2.8889    2.9385 S.2     1  UNL1       -0.1039
     10 C          -4.6044    1.7817    2.1264 C.ar    1  UNL1       -0.0166
     11 C          -3.8855    0.9283    1.3264 C.ar    1  UNL1       -0.0103
     12 C          -4.5010   -0.0627    0.5621 C.ar    1  UNL1       -0.0529
     13 C          -3.5691   -0.8191   -0.1833 C.ar    1  UNL1       -0.0529
     14 C          -2.1512   -0.5981   -0.1587 C.ar    1  UNL1       -0.0098
     15 C          -1.2199   -1.4143   -0.9601 C.ar    1  UNL1       -0.0135
     16 C          -1.4525   -2.4296   -1.8083 C.2     1  UNL1       -0.0719
     17 C           2.2188    0.1666    0.0508 C.ar    1  UNL1        0.0109
     18 C           3.0995   -0.7081    0.7246 C.ar    1  UNL1       -0.0518
     19 C           4.4880   -0.4679    0.8455 C.ar    1  UNL1       -0.0590
     20 C           5.1191    0.6650    0.3037 C.ar    1  UNL1       -0.0335
     21 C           4.2864    1.5802   -0.3856 C.ar    1  UNL1        0.1005
     22 N           4.6945    2.7165   -0.9711 N.ar    1  UNL1       -0.1908
     23 S           3.3418    3.4131   -1.6350 S.2     1  UNL1        0.1165
     24 N           2.1789    2.3126   -1.2052 N.ar    1  UNL1       -0.1902
     25 C           2.7998    1.3350   -0.5208 C.ar    1  UNL1        0.1076
     26 H          -0.1374   -2.7915   -3.4729 H       1  UNL1        0.0350
     27 H           0.0286   -3.9585   -2.1267 H       1  UNL1        0.0350
     28 H           1.9103   -2.0549   -1.9113 H       1  UNL1        0.0581
     29 H           0.3079    1.4355    1.3094 H       1  UNL1        0.0630
     30 H          -1.2034    2.6530    2.4594 H       1  UNL1        0.0700
     31 H          -5.6731    1.8254    2.2848 H       1  UNL1        0.0699
     32 H          -5.5661   -0.2503    0.5241 H       1  UNL1        0.0624
     33 H          -3.9673   -1.6147   -0.8117 H       1  UNL1        0.0624
     34 H          -2.4113   -2.8513   -2.0645 H       1  UNL1        0.0581
     35 H           2.6920   -1.6140    1.1764 H       1  UNL1        0.0624
     36 H           5.0963   -1.1955    1.3838 H       1  UNL1        0.0618
     37 H           6.1843    0.8360    0.4039 H       1  UNL1        0.0640
@<TRIPOS>BOND
     1     1     2    1
     2     2     3    2
     3     3     4   ar
     4     4     5   ar
     5     5     6   ar
     6     6     7   ar
     7     7     8   ar
     8     8     9   ar
     9     9    10   ar
    10    10    11   ar
    11    11    12   ar
    12    12    13   ar
    13    13    14   ar
    14    14    15   ar
    15    15    16    2
    16     4    17    1
    17    17    18   ar
    18    18    19   ar
    19    19    20   ar
    20    20    21   ar
    21    21    22   ar
    22    22    23   ar
    23    23    24   ar
    24    24    25   ar
    25    16     1    1
    26    25    17   ar
    27    15     3   ar
    28    25    21   ar
    29    14     6   ar
    30    11     7   ar
    31     1    26    1
    32     1    27    1
    33     2    28    1
    34     5    29    1
    35     8    30    1
    36    10    31    1
    37    12    32    1
    38    13    33    1
    39    16    34    1
    40    18    35    1
    41    19    36    1
    42    20    37    1
