@<TRIPOS>MOLECULE
*****
 47 54 0 0 0
SMALL
GASTEIGER

@<TRIPOS>ATOM
      1 C          -1.2073   -2.9517   -1.7211 C.3     1  UNL1       -0.0148
      2 C          -2.1353   -2.1341   -0.8861 C.2     1  UNL1       -0.0719
      3 C          -1.4475   -1.1605   -0.2689 C.ar    1  UNL1       -0.0135
      4 C          -1.9784   -0.0667    0.5190 C.ar    1  UNL1       -0.0092
      5 C          -1.1168    0.8894    0.9188 C.ar    1  UNL1       -0.0436
      6 C           0.3309    0.8142    0.6209 C.ar    1  UNL1        0.0121
      7 C           1.1642    1.8869    1.0302 C.ar    1  UNL1        0.1083
      8 N           0.7559    3.0279    1.6174 N.ar    1  UNL1       -0.1901
      9 S           2.0993    3.9561    1.8603 S.2     1  UNL1        0.1165
     10 N           3.2574    2.9528    1.2578 N.ar    1  UNL1       -0.1901
     11 C           2.6575    1.8273    0.8280 C.ar    1  UNL1        0.1103
     12 C           3.2911    0.6588    0.2642 C.ar    1  UNL1        0.0398
     13 C           2.4043   -0.4065   -0.1076 C.ar    1  UNL1        0.0128
     14 C           3.0737   -1.5640   -0.5095 C.ar    1  UNL1        0.0367
     15 N           4.4104   -1.7104   -0.6554 N.ar    1  UNL1       -0.2528
     16 C           5.1897   -0.6632   -0.3644 C.ar    1  UNL1        0.0898
     17 C           6.5587   -0.8075   -0.5313 C.ar    1  UNL1       -0.0328
     18 C           7.4340    0.2287   -0.2326 C.ar    1  UNL1       -0.0415
     19 C           6.8899    1.4001    0.2371 C.ar    1  UNL1        0.0284
     20 N           5.5653    1.5777    0.4124 N.ar    1  UNL1       -0.2528
     21 C           4.7054    0.5661    0.1162 C.ar    1  UNL1        0.0990
     22 C           0.9618   -0.2970   -0.0231 C.ar    1  UNL1        0.0010
     23 C          -0.0172   -1.2812   -0.5832 C.ar    1  UNL1       -0.0128
     24 C           0.1134   -2.2788   -1.4783 C.2     1  UNL1       -0.0719
     25 C          -3.3838    0.0832    0.8951 C.ar    1  UNL1       -0.0091
     26 C          -3.9186   -0.3310    2.1384 C.ar    1  UNL1       -0.0534
     27 C          -5.2985   -0.1925    2.4964 C.ar    1  UNL1       -0.0606
     28 C          -6.2810    0.3694    1.6516 C.ar    1  UNL1       -0.0535
     29 C          -5.7476    0.7736    0.4270 C.ar    1  UNL1       -0.0103
     30 C          -6.5129    1.3478   -0.5575 C.ar    1  UNL1       -0.0166
     31 S          -5.5644    1.7313   -1.9390 S.2     1  UNL1       -0.1039
     32 C          -4.1257    1.1292   -1.2133 C.ar    1  UNL1       -0.0160
     33 C          -4.3599    0.6416    0.0519 C.ar    1  UNL1       -0.0032
     34 H          -1.4830   -2.9015   -2.7786 H       1  UNL1        0.0350
     35 H          -1.1868   -3.9950   -1.3936 H       1  UNL1        0.0350
     36 H          -3.2054   -2.2771   -0.8560 H       1  UNL1        0.0581
     37 H          -1.4645    1.7427    1.4973 H       1  UNL1        0.0631
     38 H           2.5511   -2.4954   -0.6929 H       1  UNL1        0.0836
     39 H           6.9499   -1.7525   -0.8999 H       1  UNL1        0.0640
     40 H           8.5041    0.1178   -0.3615 H       1  UNL1        0.0633
     41 H           7.5112    2.2531    0.4942 H       1  UNL1        0.0830
     42 H           0.9949   -2.5850   -2.0161 H       1  UNL1        0.0581
     43 H          -3.2474   -0.7839    2.8692 H       1  UNL1        0.0624
     44 H          -5.6061   -0.5438    3.4822 H       1  UNL1        0.0618
     45 H          -7.3185    0.4644    1.9433 H       1  UNL1        0.0624
     46 H          -7.5716    1.5676   -0.5536 H       1  UNL1        0.0699
     47 H          -3.1959    1.1712   -1.7639 H       1  UNL1        0.0700
@<TRIPOS>BOND
     1     1     2    1
     2     2     3    2
     3     3     4   ar
     4     4     5   ar
     5     5     6   ar
     6     6     7   ar
     7     7     8   ar
     8     8     9   ar
     9     9    10   ar
    10    10    11   ar
    11    11    12   ar
    12    12    13   ar
    13    13    14   ar
    14    14    15   ar
    15    15    16   ar
    16    16    17   ar
    17    17    18   ar
    18    18    19   ar
    19    19    20   ar
    20    20    21   ar
    21    13    22   ar
    22    22    23   ar
    23    23    24    2
    24     4    25    1
    25    25    26   ar
    26    26    27   ar
    27    27    28   ar
    28    28    29   ar
    29    29    30   ar
    30    30    31   ar
    31    31    32   ar
    32    32    33   ar
    33    24     1    1
    34    33    25   ar
    35    23     3   ar
    36    33    29   ar
    37    22     6   ar
    38    11     7   ar
    39    21    12   ar
    40    21    16   ar
    41     1    34    1
    42     1    35    1
    43     2    36    1
    44     5    37    1
    45    14    38    1
    46    17    39    1
    47    18    40    1
    48    19    41    1
    49    24    42    1
    50    26    43    1
    51    27    44    1
    52    28    45    1
    53    30    46    1
    54    32    47    1
