@<TRIPOS>MOLECULE
*****
 41 47 0 0 0
SMALL
GASTEIGER

@<TRIPOS>ATOM
      1 C          -2.0060   -1.6368    2.8985 C.3     1  UNL1       -0.0148
      2 C          -2.9664   -1.1473    1.8627 C.2     1  UNL1       -0.0719
      3 C          -2.2916   -0.5857    0.8460 C.ar    1  UNL1       -0.0129
      4 C          -2.8310    0.0080   -0.3657 C.ar    1  UNL1       -0.0032
      5 C          -1.9451    0.5068   -1.2542 C.ar    1  UNL1       -0.0430
      6 C          -0.4834    0.4509   -1.0309 C.ar    1  UNL1        0.0135
      7 C           0.3797    0.9895   -2.0157 C.ar    1  UNL1        0.1084
      8 N           0.0064    1.5660   -3.1732 N.ar    1  UNL1       -0.1901
      9 S           1.3876    2.0196   -3.9561 S.2     1  UNL1        0.1165
     10 N           2.5157    1.5132   -2.8680 N.ar    1  UNL1       -0.1900
     11 C           1.8723    0.9550   -1.8255 C.ar    1  UNL1        0.1117
     12 C           2.4590    0.3764   -0.6406 C.ar    1  UNL1        0.0550
     13 C           3.8649    0.3270   -0.4275 C.ar    1  UNL1        0.0837
     14 N           4.7717    0.8140   -1.3100 N.ar    1  UNL1       -0.2542
     15 C           6.0943    0.7336   -1.0441 C.ar    1  UNL1        0.0283
     16 C           6.6073    0.1715    0.1027 C.ar    1  UNL1       -0.0430
     17 C           5.7035   -0.3338    1.0224 C.ar    1  UNL1       -0.0497
     18 C           4.3251   -0.2569    0.7585 C.ar    1  UNL1        0.0192
     19 C           3.3873   -0.7471    1.6465 C.ar    1  UNL1        0.0375
     20 N           2.0554   -0.7001    1.4454 N.ar    1  UNL1       -0.2536
     21 C           1.5512   -0.1532    0.3258 C.ar    1  UNL1        0.0835
     22 C           0.1350   -0.1141    0.1303 C.ar    1  UNL1        0.0177
     23 C          -0.8505   -0.6588    1.1138 C.ar    1  UNL1       -0.0114
     24 C          -0.6822   -1.2651    2.3032 C.2     1  UNL1       -0.0719
     25 C          -4.2239    0.1378   -0.6683 C.ar    1  UNL1        0.0199
     26 C          -5.1669    0.9535   -0.0655 C.ar    1  UNL1       -0.0469
     27 C          -6.4694    0.8038   -0.6235 C.ar    1  UNL1       -0.0541
     28 C          -6.4901   -0.1298   -1.6336 C.ar    1  UNL1       -0.0237
     29 S          -4.9505   -0.8211   -1.9022 S.2     1  UNL1       -0.0966
     30 H          -2.0877   -2.7191    3.0340 H       1  UNL1        0.0350
     31 H          -2.1645   -1.1316    3.8557 H       1  UNL1        0.0350
     32 H          -4.0386   -1.2480    1.9381 H       1  UNL1        0.0581
     33 H          -2.2876    0.9784   -2.1730 H       1  UNL1        0.0631
     34 H           6.7432    1.1498   -1.8095 H       1  UNL1        0.0830
     35 H           7.6764    0.1285    0.2743 H       1  UNL1        0.0633
     36 H           6.0721   -0.7854    1.9403 H       1  UNL1        0.0625
     37 H           3.6815   -1.2117    2.5846 H       1  UNL1        0.0836
     38 H           0.2527   -1.4800    2.7957 H       1  UNL1        0.0581
     39 H          -4.9254    1.6338    0.7428 H       1  UNL1        0.0629
     40 H          -7.3449    1.3525   -0.2991 H       1  UNL1        0.0623
     41 H          -7.3366   -0.4442   -2.2284 H       1  UNL1        0.0693
@<TRIPOS>BOND
     1     1     2    1
     2     2     3    2
     3     3     4   ar
     4     4     5   ar
     5     5     6   ar
     6     6     7   ar
     7     7     8   ar
     8     8     9   ar
     9     9    10   ar
    10    10    11   ar
    11    11    12   ar
    12    12    13   ar
    13    13    14   ar
    14    14    15   ar
    15    15    16   ar
    16    16    17   ar
    17    17    18   ar
    18    18    19   ar
    19    19    20   ar
    20    20    21   ar
    21    21    22   ar
    22    22    23   ar
    23    23    24    2
    24     4    25    1
    25    25    26   ar
    26    26    27   ar
    27    27    28   ar
    28    28    29   ar
    29    24     1    1
    30    29    25   ar
    31    23     3   ar
    32    22     6   ar
    33    11     7   ar
    34    21    12   ar
    35    18    13   ar
    36     1    30    1
    37     1    31    1
    38     2    32    1
    39     5    33    1
    40    15    34    1
    41    16    35    1
    42    17    36    1
    43    19    37    1
    44    24    38    1
    45    26    39    1
    46    27    40    1
    47    28    41    1
