@<TRIPOS>MOLECULE
*****
 40 47 0 0 0
SMALL
GASTEIGER

@<TRIPOS>ATOM
      1 C          -0.2918    2.7098   -2.4837 C.3     1  UNL1       -0.0148
      2 C          -1.4720    2.0309   -1.8661 C.2     1  UNL1       -0.0719
      3 C          -1.0556    1.0425   -1.0581 C.ar    1  UNL1       -0.0133
      4 C          -1.8663    0.1388   -0.2575 C.ar    1  UNL1       -0.0062
      5 C          -1.2290   -0.7844    0.4942 C.ar    1  UNL1       -0.0434
      6 C           0.2466   -0.8838    0.5299 C.ar    1  UNL1        0.0126
      7 C           0.8527   -1.8729    1.3469 C.ar    1  UNL1        0.1083
      8 N           0.2266   -2.7799    2.1292 N.ar    1  UNL1       -0.1901
      9 S           1.4104   -3.6940    2.8715 S.2     1  UNL1        0.1165
     10 N           2.7792   -2.9880    2.2285 N.ar    1  UNL1       -0.1901
     11 C           2.2937   -2.0405    1.4429 C.ar    1  UNL1        0.1098
     12 C           3.0859   -1.1427    0.6553 C.ar    1  UNL1        0.0323
     13 C           4.4964   -1.2298    0.6833 C.ar    1  UNL1        0.0362
     14 S           5.7527   -2.1777    1.4482 S.2     1  UNL1       -0.0954
     15 C           6.9597   -1.2739    0.6413 C.ar    1  UNL1       -0.0227
     16 C           6.4620   -0.2904   -0.1788 C.ar    1  UNL1       -0.0403
     17 C           5.0344   -0.2779   -0.1436 C.ar    1  UNL1        0.0276
     18 S           3.8100    0.6909   -0.9285 S.2     1  UNL1       -0.0870
     19 C           2.5168   -0.1728   -0.1506 C.ar    1  UNL1        0.0314
     20 C           1.1032   -0.0236   -0.2306 C.ar    1  UNL1        0.0061
     21 C           0.4141    0.9871   -1.0656 C.ar    1  UNL1       -0.0124
     22 C           0.8586    1.9494   -1.8932 C.2     1  UNL1       -0.0719
     23 C          -3.3308    0.1411   -0.2470 C.ar    1  UNL1        0.0290
     24 C          -4.1267   -0.2625   -1.3237 C.ar    1  UNL1        0.0375
     25 N          -5.4988   -0.2766   -1.3899 N.ar    1  UNL1       -0.2604
     26 C          -6.2516    0.1325   -0.3260 C.ar    1  UNL1        0.0557
     27 C          -5.5827    0.5713    0.8347 C.ar    1  UNL1        0.1185
     28 N          -6.1524    1.0097    1.9690 N.ar    1  UNL1       -0.1892
     29 S          -4.9077    1.3973    2.9971 S.2     1  UNL1        0.1165
     30 N          -3.5969    1.0291    2.0508 N.ar    1  UNL1       -0.1901
     31 C          -4.0754    0.5775    0.8767 C.ar    1  UNL1        0.1105
     32 H          -0.2513    3.7662   -2.2028 H       1  UNL1        0.0350
     33 H          -0.3076    2.6176   -3.5735 H       1  UNL1        0.0350
     34 H          -2.4940    2.3226   -2.0549 H       1  UNL1        0.0581
     35 H          -1.7848   -1.4901    1.1079 H       1  UNL1        0.0631
     36 H           7.9997   -1.5164    0.8143 H       1  UNL1        0.0694
     37 H           7.0740    0.3801   -0.7684 H       1  UNL1        0.0634
     38 H           1.8769    2.1981   -2.1368 H       1  UNL1        0.0581
     39 H          -3.6498   -0.6156   -2.2389 H       1  UNL1        0.0836
     40 H          -7.3284    0.1013   -0.4261 H       1  UNL1        0.0852
@<TRIPOS>BOND
     1     1     2    1
     2     2     3    2
     3     3     4   ar
     4     4     5   ar
     5     5     6   ar
     6     6     7   ar
     7     7     8   ar
     8     8     9   ar
     9     9    10   ar
    10    10    11   ar
    11    11    12   ar
    12    12    13   ar
    13    13    14   ar
    14    14    15   ar
    15    15    16   ar
    16    16    17   ar
    17    17    18   ar
    18    18    19   ar
    19    19    20   ar
    20    20    21   ar
    21    21    22    2
    22     4    23    1
    23    23    24   ar
    24    24    25   ar
    25    25    26   ar
    26    26    27   ar
    27    27    28   ar
    28    28    29   ar
    29    29    30   ar
    30    30    31   ar
    31    22     1    1
    32    31    23   ar
    33    21     3   ar
    34    31    27   ar
    35    20     6   ar
    36    11     7   ar
    37    19    12   ar
    38    17    13   ar
    39     1    32    1
    40     1    33    1
    41     2    34    1
    42     5    35    1
    43    15    36    1
    44    16    37    1
    45    22    38    1
    46    24    39    1
    47    26    40    1
