@<TRIPOS>MOLECULE
*****
 47 54 0 0 0
SMALL
GASTEIGER

@<TRIPOS>ATOM
      1 C           2.6996   -2.2875    2.5032 C.3     1  UNL1       -0.0148
      2 C           1.4643   -1.7701    1.8294 C.2     1  UNL1       -0.0719
      3 C           1.8005   -0.8634    0.8982 C.ar    1  UNL1       -0.0135
      4 C           0.9387   -0.1047    0.0050 C.ar    1  UNL1       -0.0092
      5 C           1.5184    0.7730   -0.8445 C.ar    1  UNL1       -0.0436
      6 C           2.9852    0.9561   -0.8909 C.ar    1  UNL1        0.0115
      7 C           3.5663    1.8813   -1.8020 C.ar    1  UNL1        0.1076
      8 N           2.9291    2.6693   -2.6878 N.ar    1  UNL1       -0.1902
      9 S           4.0954    3.5389   -3.4842 S.2     1  UNL1        0.1165
     10 N           5.4692    2.9650   -2.7510 N.ar    1  UNL1       -0.1908
     11 C           5.0664    2.0616   -1.8445 C.ar    1  UNL1        0.1005
     12 C           5.9177    1.3229   -0.9883 C.ar    1  UNL1       -0.0329
     13 C           5.2938    0.4219   -0.1053 C.ar    1  UNL1       -0.0513
     14 C           3.8888    0.2374   -0.0492 C.ar    1  UNL1       -0.0083
     15 C           3.2545   -0.7104    0.8847 C.ar    1  UNL1       -0.0134
     16 C           3.7917   -1.5271    1.8060 C.2     1  UNL1       -0.0719
     17 C          -0.5192   -0.2058   -0.0156 C.ar    1  UNL1       -0.0076
     18 C          -1.3972    0.7131    0.5984 C.ar    1  UNL1       -0.0450
     19 C          -2.8428    0.5701    0.5693 C.ar    1  UNL1       -0.0059
     20 C          -3.7825    1.4446    1.1582 C.ar    1  UNL1        0.0276
     21 C          -3.5414    2.5934    1.8688 C.ar    1  UNL1        0.1000
     22 O          -4.7257    3.1507    2.2693 O.2     1  UNL1       -0.4698
     23 C          -5.7347    2.3500    1.8092 C.ar    1  UNL1        0.0994
     24 C          -5.2019    1.2919    1.1225 C.ar    1  UNL1        0.0205
     25 C          -5.9111    0.2684    0.5098 C.ar    1  UNL1       -0.0504
     26 C          -5.0263   -0.6459   -0.1014 C.ar    1  UNL1       -0.0527
     27 C          -3.5733   -0.5117   -0.0782 C.ar    1  UNL1       -0.0080
     28 C          -2.6395   -1.3960   -0.6714 C.ar    1  UNL1        0.0077
     29 C          -2.9196   -2.5410   -1.3795 C.ar    1  UNL1        0.0100
     30 N          -1.7169   -3.0856   -1.7759 N.ar    1  UNL1       -0.3659
     31 C          -0.6718   -2.3081   -1.3307 C.ar    1  UNL1        0.0100
     32 C          -1.2124   -1.2502   -0.6390 C.ar    1  UNL1        0.0077
     33 H           2.8106   -3.3649    2.3502 H       1  UNL1        0.0350
     34 H           2.6873   -2.0654    3.5742 H       1  UNL1        0.0350
     35 H           0.4618   -2.0919    2.0692 H       1  UNL1        0.0581
     36 H           0.9218    1.3696   -1.5304 H       1  UNL1        0.0631
     37 H           6.9935    1.4498   -1.0159 H       1  UNL1        0.0640
     38 H           5.9370   -0.1528    0.5602 H       1  UNL1        0.0624
     39 H           4.8384   -1.6425    2.0384 H       1  UNL1        0.0581
     40 H          -0.9661    1.5658    1.1208 H       1  UNL1        0.0630
     41 H          -2.6549    3.1331    2.1691 H       1  UNL1        0.1036
     42 H          -6.7355    2.6751    2.0554 H       1  UNL1        0.1035
     43 H          -6.9862    0.1640    0.4891 H       1  UNL1        0.0625
     44 H          -5.4580   -1.5009   -0.6203 H       1  UNL1        0.0624
     45 H          -3.8486   -3.0250   -1.6461 H       1  UNL1        0.0813
     46 H          -1.6157   -3.9334   -2.3187 H       1  UNL1        0.1648
     47 H           0.3512   -2.5827   -1.5511 H       1  UNL1        0.0813
@<TRIPOS>BOND
     1     1     2    1
     2     2     3    2
     3     3     4   ar
     4     4     5   ar
     5     5     6   ar
     6     6     7   ar
     7     7     8   ar
     8     8     9   ar
     9     9    10   ar
    10    10    11   ar
    11    11    12   ar
    12    12    13   ar
    13    13    14   ar
    14    14    15   ar
    15    15    16    2
    16     4    17    1
    17    17    18   ar
    18    18    19   ar
    19    19    20   ar
    20    20    21   ar
    21    21    22   ar
    22    22    23   ar
    23    23    24   ar
    24    24    25   ar
    25    25    26   ar
    26    26    27   ar
    27    27    28   ar
    28    28    29   ar
    29    29    30   ar
    30    30    31   ar
    31    31    32   ar
    32    16     1    1
    33    32    17   ar
    34    15     3   ar
    35    27    19   ar
    36    32    28   ar
    37    14     6   ar
    38    24    20   ar
    39    11     7   ar
    40     1    33    1
    41     1    34    1
    42     2    35    1
    43     5    36    1
    44    12    37    1
    45    13    38    1
    46    16    39    1
    47    18    40    1
    48    21    41    1
    49    23    42    1
    50    25    43    1
    51    26    44    1
    52    29    45    1
    53    30    46    1
    54    31    47    1
