@<TRIPOS>MOLECULE
*****
 44 51 0 0 0
SMALL
GASTEIGER

@<TRIPOS>ATOM
      1 C          -2.0698   -3.0260    1.9558 C.3     1  UNL1       -0.0148
      2 C          -0.9409   -2.2667    1.3246 C.2     1  UNL1       -0.0719
      3 C          -1.4043   -1.1279    0.7848 C.ar    1  UNL1       -0.0135
      4 C          -0.6774   -0.0859    0.0753 C.ar    1  UNL1       -0.0091
      5 C          -1.3716    0.9904   -0.3581 C.ar    1  UNL1       -0.0436
      6 C          -2.8298    1.1136   -0.1431 C.ar    1  UNL1        0.0115
      7 C          -3.5332    2.2548   -0.6196 C.ar    1  UNL1        0.1076
      8 N          -3.0265    3.3110   -1.2824 N.ar    1  UNL1       -0.1902
      9 S          -4.2926    4.3379   -1.5892 S.2     1  UNL1        0.1165
     10 N          -5.5492    3.4998   -0.9015 N.ar    1  UNL1       -0.1908
     11 C          -5.0235    2.3727   -0.3984 C.ar    1  UNL1        0.1005
     12 C          -5.7455    1.3618    0.2799 C.ar    1  UNL1       -0.0329
     13 C          -5.0038    0.2540    0.7314 C.ar    1  UNL1       -0.0513
     14 C          -3.6054    0.1237    0.5346 C.ar    1  UNL1       -0.0083
     15 C          -2.8457   -1.0434    1.0171 C.ar    1  UNL1       -0.0134
     16 C          -3.2482   -2.1333    1.6910 C.2     1  UNL1       -0.0719
     17 C           0.7593   -0.1127   -0.1863 C.ar    1  UNL1       -0.0059
     18 C           1.7272    0.6634    0.4913 C.ar    1  UNL1       -0.0435
     19 C           3.1535    0.6040    0.2137 C.ar    1  UNL1        0.0116
     20 C           4.0979    1.4132    0.9305 C.ar    1  UNL1        0.1076
     21 N           3.8153    2.2938    1.9088 N.ar    1  UNL1       -0.1902
     22 S           5.2557    2.9569    2.3928 S.2     1  UNL1        0.1165
     23 N           6.3163    2.1643    1.3937 N.ar    1  UNL1       -0.1908
     24 C           5.5806    1.3413    0.6307 C.ar    1  UNL1        0.1005
     25 C           6.0975    0.4770   -0.3645 C.ar    1  UNL1       -0.0329
     26 C           5.1654   -0.3086   -1.0571 C.ar    1  UNL1       -0.0512
     27 C           3.7624   -0.2507   -0.7838 C.ar    1  UNL1       -0.0049
     28 C           2.7537   -1.0030   -1.4287 C.ar    1  UNL1        0.0282
     29 C           2.8995   -1.9272   -2.4322 C.ar    1  UNL1        0.1000
     30 O           1.6771   -2.4284   -2.7838 O.2     1  UNL1       -0.4698
     31 C           0.7396   -1.8175   -1.9990 C.ar    1  UNL1        0.1000
     32 C           1.3526   -0.9357   -1.1456 C.ar    1  UNL1        0.0282
     33 H          -1.9067   -3.1544    3.0298 H       1  UNL1        0.0350
     34 H          -2.2014   -4.0032    1.4823 H       1  UNL1        0.0350
     35 H           0.0844   -2.6048    1.3195 H       1  UNL1        0.0581
     36 H          -0.8812    1.8026   -0.8895 H       1  UNL1        0.0631
     37 H          -6.8141    1.4429    0.4405 H       1  UNL1        0.0640
     38 H          -5.5472   -0.5313    1.2556 H       1  UNL1        0.0624
     39 H          -4.2515   -2.3622    2.0136 H       1  UNL1        0.0581
     40 H           1.3842    1.3453    1.2725 H       1  UNL1        0.0631
     41 H           7.1597    0.4311   -0.5739 H       1  UNL1        0.0640
     42 H           5.5355   -0.9826   -1.8285 H       1  UNL1        0.0624
     43 H           3.7357   -2.3296   -2.9859 H       1  UNL1        0.1036
     44 H          -0.2835   -2.1200   -2.1752 H       1  UNL1        0.1036
@<TRIPOS>BOND
     1     1     2    1
     2     2     3    2
     3     3     4   ar
     4     4     5   ar
     5     5     6   ar
     6     6     7   ar
     7     7     8   ar
     8     8     9   ar
     9     9    10   ar
    10    10    11   ar
    11    11    12   ar
    12    12    13   ar
    13    13    14   ar
    14    14    15   ar
    15    15    16    2
    16     4    17    1
    17    17    18   ar
    18    18    19   ar
    19    19    20   ar
    20    20    21   ar
    21    21    22   ar
    22    22    23   ar
    23    23    24   ar
    24    24    25   ar
    25    25    26   ar
    26    26    27   ar
    27    27    28   ar
    28    28    29   ar
    29    29    30   ar
    30    30    31   ar
    31    31    32   ar
    32    16     1    1
    33    32    17   ar
    34    15     3   ar
    35    27    19   ar
    36    32    28   ar
    37    14     6   ar
    38    24    20   ar
    39    11     7   ar
    40     1    33    1
    41     1    34    1
    42     2    35    1
    43     5    36    1
    44    12    37    1
    45    13    38    1
    46    16    39    1
    47    18    40    1
    48    25    41    1
    49    26    42    1
    50    29    43    1
    51    31    44    1
