@<TRIPOS>MOLECULE
*****
 34 39 0 0 0
SMALL
GASTEIGER

@<TRIPOS>ATOM
      1 C          -0.9663   -3.4326    1.0502 C.3     1  UNL1       -0.0148
      2 C           0.2242   -2.6402    0.5993 C.2     1  UNL1       -0.0719
      3 C          -0.1671   -1.4282    0.1717 C.ar    1  UNL1       -0.0130
      4 C           0.6399   -0.3291   -0.3488 C.ar    1  UNL1       -0.0026
      5 C          -0.0035    0.8163   -0.6768 C.ar    1  UNL1       -0.0431
      6 C          -1.4683    0.9636   -0.5375 C.ar    1  UNL1        0.0115
      7 C          -2.1058    2.1836   -0.8973 C.ar    1  UNL1        0.1076
      8 N          -1.5251    3.3013   -1.3717 N.ar    1  UNL1       -0.1902
      9 S          -2.7390    4.4042   -1.6212 S.2     1  UNL1        0.1165
     10 N          -4.0623    3.5280   -1.1364 N.ar    1  UNL1       -0.1908
     11 C          -3.6040    2.3247   -0.7599 C.ar    1  UNL1        0.1005
     12 C          -4.3983    1.2584   -0.2749 C.ar    1  UNL1       -0.0329
     13 C          -3.7191    0.0745    0.0691 C.ar    1  UNL1       -0.0513
     14 C          -2.3143   -0.0783   -0.0519 C.ar    1  UNL1       -0.0083
     15 C          -1.6194   -1.3228    0.3199 C.ar    1  UNL1       -0.0134
     16 C          -2.0978   -2.4727    0.8229 C.2     1  UNL1       -0.0719
     17 C           2.0548   -0.3535   -0.5375 C.ar    1  UNL1        0.0308
     18 S           2.8036   -1.4338   -1.7023 S.2     1  UNL1       -0.0923
     19 C           4.4118   -0.8827   -1.3635 C.ar    1  UNL1        0.0192
     20 C           4.3235    0.0696   -0.4193 C.ar    1  UNL1        0.1424
     21 O           5.3570    0.7647    0.1279 O.2     1  UNL1       -0.4624
     22 C           4.6539    1.5711    1.0053 C.ar    1  UNL1        0.0932
     23 C           3.2676    1.3688    0.9863 C.ar    1  UNL1       -0.0150
     24 C           3.0595    0.3611    0.0274 C.ar    1  UNL1        0.0349
     25 H          -0.8839   -3.7003    2.1077 H       1  UNL1        0.0350
     26 H          -1.0895   -4.3375    0.4482 H       1  UNL1        0.0350
     27 H           1.2371   -3.0126    0.6259 H       1  UNL1        0.0581
     28 H           0.5370    1.6726   -1.0739 H       1  UNL1        0.0631
     29 H          -5.4730    1.3552   -0.1753 H       1  UNL1        0.0640
     30 H          -4.3185   -0.7541    0.4448 H       1  UNL1        0.0624
     31 H          -3.1268   -2.7033    1.0492 H       1  UNL1        0.0581
     32 H           5.2939   -1.2668   -1.8540 H       1  UNL1        0.0731
     33 H           5.2798    2.2415    1.5798 H       1  UNL1        0.1030
     34 H           2.5383    1.8894    1.5902 H       1  UNL1        0.0655
@<TRIPOS>BOND
     1     1     2    1
     2     2     3    2
     3     3     4   ar
     4     4     5   ar
     5     5     6   ar
     6     6     7   ar
     7     7     8   ar
     8     8     9   ar
     9     9    10   ar
    10    10    11   ar
    11    11    12   ar
    12    12    13   ar
    13    13    14   ar
    14    14    15   ar
    15    15    16    2
    16     4    17    1
    17    17    18   ar
    18    18    19   ar
    19    19    20   ar
    20    20    21   ar
    21    21    22   ar
    22    22    23   ar
    23    23    24   ar
    24    16     1    1
    25    24    17   ar
    26    15     3   ar
    27    24    20   ar
    28    14     6   ar
    29    11     7   ar
    30     1    25    1
    31     1    26    1
    32     2    27    1
    33     5    28    1
    34    12    29    1
    35    13    30    1
    36    16    31    1
    37    19    32    1
    38    22    33    1
    39    23    34    1
