@<TRIPOS>MOLECULE
*****
 47 54 0 0 0
SMALL
GASTEIGER

@<TRIPOS>ATOM
      1 SI         -0.8032   -3.9570   -0.3952 Si      1  UNL1        0.0000
      2 C          -1.9831   -2.5922    0.0631 C.2     1  UNL1        0.0000
      3 C          -1.3421   -1.4208    0.2636 C.ar    1  UNL1        0.0000
      4 C          -2.0026   -0.1616    0.6383 C.ar    1  UNL1        0.0000
      5 C          -1.2442    0.9452    0.8137 C.ar    1  UNL1        0.0000
      6 C           0.2144    0.9139    0.6498 C.ar    1  UNL1        0.0000
      7 C           1.0357    2.0325    0.8296 C.ar    1  UNL1        0.0000
      8 C           0.6737    3.3140    1.1807 C.ar    1  UNL1        0.0000
      9 O           1.7810    4.1251    1.2536 O.2     1  UNL1        0.0000
     10 C           2.8777    3.3592    0.9466 C.ar    1  UNL1        0.0000
     11 C           2.4338    2.1016    0.6914 C.ar    1  UNL1        0.0000
     12 C           3.1186    0.9159    0.3282 C.ar    1  UNL1        0.0000
     13 C           4.4703    0.6426    0.1119 C.ar    1  UNL1        0.0000
     14 C           5.6990    1.3256    0.1410 C.ar    1  UNL1        0.0000
     15 C           6.8715    0.6170   -0.1608 C.ar    1  UNL1        0.0000
     16 C           6.8307   -0.7412   -0.4853 C.ar    1  UNL1        0.0000
     17 C           5.6200   -1.4397   -0.5202 C.ar    1  UNL1        0.0000
     18 C           4.4693   -0.7141   -0.2167 C.ar    1  UNL1        0.0000
     19 O           3.2024   -1.2300   -0.2012 O.2     1  UNL1        0.0000
     20 C           2.3415   -0.2153    0.1407 C.ar    1  UNL1        0.0000
     21 C           0.9314   -0.2683    0.2845 C.ar    1  UNL1        0.0000
     22 C           0.1342   -1.4948    0.0786 C.ar    1  UNL1        0.0000
     23 C           0.5866   -2.7190   -0.2634 C.2     1  UNL1        0.0000
     24 C          -3.4174   -0.0029    0.7991 C.ar    1  UNL1        0.0000
     25 S          -4.1170    0.0671    2.3943 S.2     1  UNL1        0.0000
     26 C          -5.7263    0.2341    1.7954 C.ar    1  UNL1        0.0000
     27 C          -5.7064    0.2269    0.4359 C.ar    1  UNL1        0.0000
     28 SI         -6.9814    0.3489   -0.9428 Si      1  UNL1        0.0000
     29 C          -5.5493    0.1939   -2.2013 C.2     1  UNL1        0.0000
     30 C          -4.3562    0.0761   -1.5779 C.2     1  UNL1        0.0000
     31 C          -4.4168    0.0916   -0.1444 C.ar    1  UNL1        0.0000
     32 H          -1.0049   -4.4373   -1.7838 H       1  UNL1        0.0000
     33 H          -0.7240   -5.0152    0.6406 H       1  UNL1        0.0000
     34 H          -3.0425   -2.7790    0.1459 H       1  UNL1        0.0000
     35 H          -1.7050    1.8921    1.0759 H       1  UNL1        0.0000
     36 H          -0.2618    3.8070    1.4053 H       1  UNL1        0.0000
     37 H           3.8290    3.8693    0.9647 H       1  UNL1        0.0000
     38 H           5.7531    2.3801    0.3908 H       1  UNL1        0.0000
     39 H           7.8284    1.1349   -0.1412 H       1  UNL1        0.0000
     40 H           7.7559   -1.2661   -0.7149 H       1  UNL1        0.0000
     41 H           5.5713   -2.4927   -0.7696 H       1  UNL1        0.0000
     42 H           1.6022   -3.0265   -0.4492 H       1  UNL1        0.0000
     43 H          -6.5612    0.3210    2.4772 H       1  UNL1        0.0000
     44 H          -7.8931   -0.8190   -1.0288 H       1  UNL1        0.0000
     45 H          -7.6378    1.6761   -1.0446 H       1  UNL1        0.0000
     46 H          -5.7391    0.2057   -3.2624 H       1  UNL1        0.0000
     47 H          -3.4163   -0.0249   -2.1094 H       1  UNL1        0.0000
@<TRIPOS>BOND
     1     1     2    1
     2     2     3    2
     3     3     4   ar
     4     4     5   ar
     5     5     6   ar
     6     6     7   ar
     7     7     8   ar
     8     8     9   ar
     9     9    10   ar
    10    10    11   ar
    11    11    12   ar
    12    12    13   ar
    13    13    14   ar
    14    14    15   ar
    15    15    16   ar
    16    16    17   ar
    17    17    18   ar
    18    18    19   ar
    19    19    20   ar
    20    20    21   ar
    21    21    22   ar
    22    22    23    2
    23     4    24    1
    24    24    25   ar
    25    25    26   ar
    26    26    27   ar
    27    27    28    1
    28    28    29    1
    29    29    30    2
    30    30    31    1
    31    23     1    1
    32    31    24   ar
    33    22     3   ar
    34    31    27   ar
    35    21     6   ar
    36    11     7   ar
    37    20    12   ar
    38    18    13   ar
    39     1    32    1
    40     1    33    1
    41     2    34    1
    42     5    35    1
    43     8    36    1
    44    10    37    1
    45    14    38    1
    46    15    39    1
    47    16    40    1
    48    17    41    1
    49    23    42    1
    50    26    43    1
    51    28    44    1
    52    28    45    1
    53    29    46    1
    54    30    47    1
