@<TRIPOS>MOLECULE
*****
 49 56 0 0 0
SMALL
GASTEIGER

@<TRIPOS>ATOM
      1 C          -1.7336    3.0210    2.3654 C.3     1  UNL1       -0.0148
      2 C          -2.6986    2.3624    1.4251 C.2     1  UNL1       -0.0719
      3 C          -2.0439    1.4927    0.6384 C.ar    1  UNL1       -0.0130
      4 C          -2.5612    0.6290   -0.4128 C.ar    1  UNL1       -0.0027
      5 C          -1.6796   -0.1802   -1.0462 C.ar    1  UNL1       -0.0451
      6 C          -0.2269   -0.2102   -0.7221 C.ar    1  UNL1       -0.0147
      7 C           0.6055   -1.0809   -1.4422 C.ar    1  UNL1       -0.0300
      8 C           1.9718   -1.0995   -1.1280 C.ar    1  UNL1        0.0481
      9 N           2.9907   -1.8564   -1.6832 N.ar    1  UNL1       -0.3541
     10 C           4.2006   -1.5760   -1.0883 C.ar    1  UNL1        0.0481
     11 C           5.5038   -2.0937   -1.3185 C.ar    1  UNL1       -0.0371
     12 C           6.6065   -1.6367   -0.5633 C.ar    1  UNL1       -0.0506
     13 C           6.2502   -0.6732    0.3717 C.ar    1  UNL1        0.0001
     14 C           7.1170   -0.0537    1.2408 C.ar    1  UNL1        0.0094
     15 N           6.3780    0.8365    2.0035 N.ar    1  UNL1       -0.3659
     16 C           5.0459    0.7971    1.6361 C.ar    1  UNL1        0.0101
     17 C           4.9843   -0.1290    0.6390 C.ar    1  UNL1        0.0091
     18 C           3.8939   -0.6121   -0.1405 C.ar    1  UNL1        0.0165
     19 C           2.5298   -0.2892   -0.1322 C.ar    1  UNL1        0.0086
     20 C           1.6854    0.5820    0.5847 C.ar    1  UNL1       -0.0437
     21 C           0.3133    0.6200    0.2895 C.ar    1  UNL1       -0.0097
     22 C          -0.6284    1.5010    0.9961 C.ar    1  UNL1       -0.0135
     23 C          -0.4285    2.3799    1.9919 C.2     1  UNL1       -0.0719
     24 C          -3.9269    0.5528   -0.8229 C.ar    1  UNL1        0.0273
     25 S          -4.6508    1.8335   -1.7551 S.2     1  UNL1       -0.0958
     26 C          -6.1843    1.0420   -1.8460 C.ar    1  UNL1       -0.0197
     27 C          -6.1423   -0.1553   -1.1884 C.ar    1  UNL1       -0.0289
     28 C          -7.0737   -1.2811   -0.8942 C.3     1  UNL1       -0.0081
     29 C          -6.1535   -2.2012   -0.0857 C.2     1  UNL1       -0.0791
     30 C          -4.9167   -1.6691    0.0440 C.2     1  UNL1       -0.0568
     31 C          -4.8731   -0.4158   -0.6210 C.ar    1  UNL1       -0.0070
     32 H          -1.7019    4.1025    2.2048 H       1  UNL1        0.0350
     33 H          -1.9920    2.8095    3.4071 H       1  UNL1        0.0350
     34 H          -3.7576    2.5700    1.3998 H       1  UNL1        0.0581
     35 H          -2.0117   -0.8458   -1.8385 H       1  UNL1        0.0630
     36 H           0.2087   -1.7230   -2.2222 H       1  UNL1        0.0644
     37 H           2.8620   -2.5257   -2.4272 H       1  UNL1        0.1659
     38 H           5.6610   -2.8503   -2.0835 H       1  UNL1        0.0638
     39 H           7.6107   -2.0094   -0.7131 H       1  UNL1        0.0625
     40 H           8.1824   -0.1516    1.3973 H       1  UNL1        0.0813
     41 H           6.7604    1.4312    2.7268 H       1  UNL1        0.1648
     42 H           4.3149    1.4250    2.1225 H       1  UNL1        0.0813
     43 H           2.1018    1.2161    1.3577 H       1  UNL1        0.0631
     44 H           0.5101    2.6079    2.4712 H       1  UNL1        0.0581
     45 H          -7.0085    1.5038   -2.3709 H       1  UNL1        0.0696
     46 H          -7.9265   -0.9572   -0.2914 H       1  UNL1        0.0356
     47 H          -7.4145   -1.7770   -1.8072 H       1  UNL1        0.0356
     48 H          -6.4692   -3.1486    0.3249 H       1  UNL1        0.0575
     49 H          -4.0846   -2.1139    0.5719 H       1  UNL1        0.0621
@<TRIPOS>BOND
     1     1     2    1
     2     2     3    2
     3     3     4   ar
     4     4     5   ar
     5     5     6   ar
     6     6     7   ar
     7     7     8   ar
     8     8     9   ar
     9     9    10   ar
    10    10    11   ar
    11    11    12   ar
    12    12    13   ar
    13    13    14   ar
    14    14    15   ar
    15    15    16   ar
    16    16    17   ar
    17    17    18   ar
    18    18    19   ar
    19    19    20   ar
    20    20    21   ar
    21    21    22   ar
    22    22    23    2
    23     4    24    1
    24    24    25   ar
    25    25    26   ar
    26    26    27   ar
    27    27    28    1
    28    28    29    1
    29    29    30    2
    30    30    31    1
    31    23     1    1
    32    31    24   ar
    33    22     3   ar
    34    31    27   ar
    35    21     6   ar
    36    19     8   ar
    37    18    10   ar
    38    17    13   ar
    39     1    32    1
    40     1    33    1
    41     2    34    1
    42     5    35    1
    43     7    36    1
    44     9    37    1
    45    11    38    1
    46    12    39    1
    47    14    40    1
    48    15    41    1
    49    16    42    1
    50    20    43    1
    51    23    44    1
    52    26    45    1
    53    28    46    1
    54    28    47    1
    55    29    48    1
    56    30    49    1
