@<TRIPOS>MOLECULE
*****
 48 55 0 0 0
SMALL
GASTEIGER

@<TRIPOS>ATOM
      1 C           2.3586    3.2766   -1.1924 C.3     1  UNL1       -0.0148
      2 C           3.1209    1.9953   -1.0238 C.2     1  UNL1       -0.0719
      3 C           2.2765    1.0036   -0.6952 C.ar    1  UNL1       -0.0129
      4 C           2.5593   -0.4033   -0.4412 C.ar    1  UNL1       -0.0013
      5 C           1.5082   -1.2056   -0.1490 C.ar    1  UNL1       -0.0451
      6 C           0.1076   -0.7115   -0.0774 C.ar    1  UNL1       -0.0161
      7 C          -0.9200   -1.6039    0.2276 C.ar    1  UNL1       -0.0455
      8 C          -2.2532   -1.1365    0.3046 C.ar    1  UNL1       -0.0045
      9 C          -3.3860   -1.9179    0.6008 C.ar    1  UNL1        0.0283
     10 C          -3.4514   -3.2609    0.8710 C.ar    1  UNL1        0.1000
     11 O          -4.7495   -3.6206    1.1062 O.2     1  UNL1       -0.4698
     12 C          -5.5149   -2.4944    0.9832 C.ar    1  UNL1        0.1000
     13 C          -4.7149   -1.4249    0.6730 C.ar    1  UNL1        0.0296
     14 C          -5.0876   -0.0835    0.4584 C.ar    1  UNL1        0.0117
     15 C          -6.3973    0.4367    0.5228 C.ar    1  UNL1       -0.0504
     16 C          -6.5861    1.7858    0.2835 C.ar    1  UNL1       -0.0430
     17 C          -5.4717    2.5488   -0.0062 C.ar    1  UNL1        0.0283
     18 N          -4.2056    2.0666   -0.0721 N.ar    1  UNL1       -0.2543
     19 C          -3.9681    0.7550    0.1529 C.ar    1  UNL1        0.0794
     20 C          -2.6113    0.2388    0.0812 C.ar    1  UNL1        0.0094
     21 C          -1.5367    1.0978   -0.2242 C.ar    1  UNL1       -0.0437
     22 C          -0.2057    0.6500   -0.3057 C.ar    1  UNL1       -0.0098
     23 C           0.9198    1.5388   -0.6283 C.ar    1  UNL1       -0.0135
     24 C           0.9473    2.8520   -0.9084 C.2     1  UNL1       -0.0719
     25 C           3.8541   -0.9905   -0.4442 C.ar    1  UNL1        0.0438
     26 S           4.4128   -2.1520   -1.6107 S.2     1  UNL1       -0.0939
     27 C           5.9942   -2.2752   -0.8942 C.ar    1  UNL1       -0.0145
     28 C           6.0245   -1.4486    0.1703 C.ar    1  UNL1        0.0073
     29 C           6.8865   -1.0086    1.2044 C.ar    1  UNL1       -0.0361
     30 C           6.1596   -0.0810    1.9823 C.ar    1  UNL1        0.0028
     31 N           4.8657    0.0960    1.4957 N.ar    1  UNL1       -0.3598
     32 C           4.8662   -0.7474    0.4203 C.ar    1  UNL1        0.0614
     33 H           2.6947    4.0324   -0.4766 H       1  UNL1        0.0350
     34 H           2.4566    3.6625   -2.2112 H       1  UNL1        0.0350
     35 H           4.1880    1.9049   -1.1633 H       1  UNL1        0.0581
     36 H           1.6582   -2.2617    0.0608 H       1  UNL1        0.0630
     37 H          -0.6986   -2.6524    0.4048 H       1  UNL1        0.0630
     38 H          -2.7319   -4.0647    0.9361 H       1  UNL1        0.1036
     39 H          -6.5738   -2.6376    1.1452 H       1  UNL1        0.1036
     40 H          -7.2463   -0.1982    0.7539 H       1  UNL1        0.0625
     41 H          -7.5725    2.2335    0.3207 H       1  UNL1        0.0633
     42 H          -5.5635    3.6141   -0.2025 H       1  UNL1        0.0830
     43 H          -1.7492    2.1507   -0.4053 H       1  UNL1        0.0631
     44 H           0.1016    3.5212   -0.9438 H       1  UNL1        0.0581
     45 H           6.7517   -2.9271   -1.3036 H       1  UNL1        0.0700
     46 H           7.9095   -1.3102    1.3860 H       1  UNL1        0.0639
     47 H           6.4685    0.4744    2.8586 H       1  UNL1        0.0807
     48 H           4.1054    0.6826    1.8200 H       1  UNL1        0.1654
@<TRIPOS>BOND
     1     1     2    1
     2     2     3    2
     3     3     4   ar
     4     4     5   ar
     5     5     6   ar
     6     6     7   ar
     7     7     8   ar
     8     8     9   ar
     9     9    10   ar
    10    10    11   ar
    11    11    12   ar
    12    12    13   ar
    13    13    14   ar
    14    14    15   ar
    15    15    16   ar
    16    16    17   ar
    17    17    18   ar
    18    18    19   ar
    19    19    20   ar
    20    20    21   ar
    21    21    22   ar
    22    22    23   ar
    23    23    24    2
    24     4    25    1
    25    25    26   ar
    26    26    27   ar
    27    27    28   ar
    28    28    29   ar
    29    29    30   ar
    30    30    31   ar
    31    31    32   ar
    32    24     1    1
    33    32    25   ar
    34    23     3   ar
    35    32    28   ar
    36    22     6   ar
    37    20     8   ar
    38    13     9   ar
    39    19    14   ar
    40     1    33    1
    41     1    34    1
    42     2    35    1
    43     5    36    1
    44     7    37    1
    45    10    38    1
    46    12    39    1
    47    15    40    1
    48    16    41    1
    49    17    42    1
    50    21    43    1
    51    24    44    1
    52    27    45    1
    53    29    46    1
    54    30    47    1
    55    31    48    1
