@<TRIPOS>MOLECULE
*****
 48 55 0 0 0
SMALL
GASTEIGER

@<TRIPOS>ATOM
      1 C           2.5578   -3.5399   -0.5720 C.3     1  UNL1        0.0000
      2 C           3.6150   -2.4822   -0.4682 C.2     1  UNL1        0.0000
      3 C           3.0505   -1.2722   -0.3141 C.ar    1  UNL1        0.0000
      4 C           3.6686    0.0476   -0.1785 C.ar    1  UNL1        0.0000
      5 C           2.8237    1.1059   -0.0814 C.ar    1  UNL1        0.0000
      6 C           1.3447    0.9811   -0.0928 C.ar    1  UNL1        0.0000
      7 C           0.5522    2.1244   -0.0249 C.ar    1  UNL1        0.0000
      8 C          -0.8599    2.0246   -0.0316 C.ar    1  UNL1        0.0000
      9 C          -1.6525    3.2186   -0.0526 C.ar    1  UNL1        0.0000
     10 N          -1.1924    4.4845   -0.0385 N.ar    1  UNL1        0.0000
     11 S          -2.5102    5.4791   -0.1408 S.2     1  UNL1        0.0000
     12 N          -3.7259    4.3595   -0.2076 N.ar    1  UNL1        0.0000
     13 C          -3.1483    3.1449   -0.1330 C.ar    1  UNL1        0.0000
     14 C          -3.8072    1.8859   -0.1284 C.ar    1  UNL1        0.0000
     15 C          -5.2703    1.8591   -0.3188 C.ar    1  UNL1        0.0000
     16 C          -5.9535    0.7061   -0.2996 C.ar    1  UNL1        0.0000
     17 C          -5.2668   -0.5247    0.0070 C.ar    1  UNL1        0.0000
     18 C          -5.9128   -1.6872    0.2178 C.2     1  UNL1        0.0000
     19 SI         -4.7479   -3.0002    0.8296 Si      1  UNL1        0.0000
     20 C          -3.3761   -1.7231    0.7513 C.2     1  UNL1        0.0000
     21 C          -3.7958   -0.5501    0.2268 C.ar    1  UNL1        0.0000
     22 C          -2.9937    0.7083    0.0083 C.ar    1  UNL1        0.0000
     23 C          -1.5422    0.7690   -0.0548 C.ar    1  UNL1        0.0000
     24 C          -0.6902   -0.3562   -0.1920 C.ar    1  UNL1        0.0000
     25 C           0.7146   -0.2713   -0.1965 C.ar    1  UNL1        0.0000
     26 C           1.5952   -1.4406   -0.3225 C.ar    1  UNL1        0.0000
     27 C           1.2938   -2.7416   -0.4657 C.2     1  UNL1        0.0000
     28 C           5.1337    0.3127   -0.1310 C.ar    1  UNL1        0.0000
     29 N           5.9311   -0.6502    0.3410 N.ar    1  UNL1        0.0000
     30 C           7.2243   -0.3410    0.3716 C.ar    1  UNL1        0.0000
     31 N           7.7657    0.8088   -0.0184 N.ar    1  UNL1        0.0000
     32 C           6.8794    1.6922   -0.4665 C.ar    1  UNL1        0.0000
     33 N           5.5640    1.5122   -0.5445 N.ar    1  UNL1        0.0000
     34 H           2.6151   -4.0614   -1.5319 H       1  UNL1        0.0000
     35 H           2.6395   -4.2616    0.2459 H       1  UNL1        0.0000
     36 H           4.6715   -2.6968   -0.5142 H       1  UNL1        0.0000
     37 H           3.2099    2.1170    0.0246 H       1  UNL1        0.0000
     38 H           1.0223    3.1060    0.0151 H       1  UNL1        0.0000
     39 H          -5.7857    2.7956   -0.5107 H       1  UNL1        0.0000
     40 H          -7.0273    0.6949   -0.4546 H       1  UNL1        0.0000
     41 H          -6.9745   -1.8649    0.1487 H       1  UNL1        0.0000
     42 H          -4.5445   -4.0938   -0.1507 H       1  UNL1        0.0000
     43 H          -5.0387   -3.4257    2.2195 H       1  UNL1        0.0000
     44 H          -2.4066   -1.9915    1.1324 H       1  UNL1        0.0000
     45 H          -1.1236   -1.3354   -0.3585 H       1  UNL1        0.0000
     46 H           0.3086   -3.1774   -0.5119 H       1  UNL1        0.0000
     47 H           7.9010   -1.0993    0.7507 H       1  UNL1        0.0000
     48 H           7.2643    2.6504   -0.7987 H       1  UNL1        0.0000
@<TRIPOS>BOND
     1     1     2    1
     2     2     3    2
     3     3     4   ar
     4     4     5   ar
     5     5     6   ar
     6     6     7   ar
     7     7     8   ar
     8     8     9   ar
     9     9    10   ar
    10    10    11   ar
    11    11    12   ar
    12    12    13   ar
    13    13    14   ar
    14    14    15   ar
    15    15    16   ar
    16    16    17   ar
    17    17    18    2
    18    18    19    1
    19    19    20    1
    20    20    21    2
    21    21    22   ar
    22    22    23   ar
    23    23    24   ar
    24    24    25   ar
    25    25    26   ar
    26    26    27    2
    27     4    28    1
    28    28    29   ar
    29    29    30   ar
    30    30    31   ar
    31    31    32   ar
    32    32    33   ar
    33    27     1    1
    34    33    28   ar
    35    26     3   ar
    36    25     6   ar
    37    23     8   ar
    38    13     9   ar
    39    22    14   ar
    40    21    17   ar
    41     1    34    1
    42     1    35    1
    43     2    36    1
    44     5    37    1
    45     7    38    1
    46    15    39    1
    47    16    40    1
    48    18    41    1
    49    19    42    1
    50    19    43    1
    51    20    44    1
    52    24    45    1
    53    27    46    1
    54    30    47    1
    55    32    48    1
