@<TRIPOS>MOLECULE
*****
 43 48 0 0 0
SMALL
GASTEIGER

@<TRIPOS>ATOM
      1 C          -2.1392    2.9255   -1.7656 C.3     1  UNL1       -0.0148
      2 C          -2.9973    1.8939   -1.0953 C.2     1  UNL1       -0.0720
      3 C          -2.2229    0.9810   -0.4860 C.ar    1  UNL1       -0.0138
      4 C          -2.6114   -0.2042    0.2712 C.ar    1  UNL1       -0.0136
      5 C          -1.6080   -0.9901    0.7310 C.ar    1  UNL1       -0.0460
      6 C          -0.1687   -0.6919    0.5118 C.ar    1  UNL1       -0.0161
      7 C           0.8032   -1.5548    1.0260 C.ar    1  UNL1       -0.0462
      8 C           2.1744   -1.3012    0.8470 C.ar    1  UNL1       -0.0166
      9 C           3.1136   -2.1912    1.3783 C.ar    1  UNL1       -0.0534
     10 C           4.4801   -1.9716    1.2209 C.ar    1  UNL1       -0.0533
     11 C           4.9471   -0.8529    0.5262 C.ar    1  UNL1       -0.0144
     12 C           6.3241   -0.6449    0.3758 C.ar    1  UNL1       -0.0359
     13 C           6.7629    0.4690   -0.3155 C.ar    1  UNL1        0.0281
     14 N           5.9357    1.3771   -0.8596 N.ar    1  UNL1       -0.2626
     15 C           4.6064    1.1549   -0.7013 C.ar    1  UNL1        0.0358
     16 C           4.0250    0.0666   -0.0234 C.ar    1  UNL1        0.0079
     17 C           2.6110   -0.1549    0.1359 C.ar    1  UNL1       -0.0081
     18 C           1.6088    0.7072   -0.3775 C.ar    1  UNL1       -0.0451
     19 C           0.2418    0.4525   -0.1987 C.ar    1  UNL1       -0.0098
     20 C          -0.8210    1.3199   -0.7231 C.ar    1  UNL1       -0.0135
     21 C          -0.7523    2.4441   -1.4549 C.2     1  UNL1       -0.0719
     22 C          -3.9769   -0.5713    0.5821 C.2     1  UNL1       -0.0359
     23 C          -4.6235   -1.6932    0.2225 C.2     1  UNL1       -0.0580
     24 C          -5.9597   -1.6719    0.7594 C.2     1  UNL1       -0.0651
     25 C          -6.1427   -0.5411    1.4556 C.2     1  UNL1       -0.0797
     26 C          -4.8904    0.2908    1.4152 C.3     1  UNL1       -0.0086
     27 H          -2.3164    2.9438   -2.8450 H       1  UNL1        0.0350
     28 H          -2.3158    3.9198   -1.3452 H       1  UNL1        0.0350
     29 H          -4.0756    1.8995   -1.1255 H       1  UNL1        0.0581
     30 H          -1.8316   -1.8811    1.3117 H       1  UNL1        0.0630
     31 H           0.4895   -2.4399    1.5767 H       1  UNL1        0.0630
     32 H           2.7898   -3.0744    1.9261 H       1  UNL1        0.0624
     33 H           5.1769   -2.6889    1.6500 H       1  UNL1        0.0624
     34 H           7.0509   -1.3368    0.7887 H       1  UNL1        0.0639
     35 H           7.8227    0.6630   -0.4521 H       1  UNL1        0.0830
     36 H           3.9976    1.9254   -1.1645 H       1  UNL1        0.0836
     37 H           1.8914    1.5976   -0.9298 H       1  UNL1        0.0630
     38 H           0.1422    2.9397   -1.7971 H       1  UNL1        0.0581
     39 H          -4.2255   -2.4996   -0.3749 H       1  UNL1        0.0620
     40 H          -6.6850   -2.4578    0.6131 H       1  UNL1        0.0615
     41 H          -7.0482   -0.2573    1.9700 H       1  UNL1        0.0575
     42 H          -5.0914    1.2597    0.9503 H       1  UNL1        0.0356
     43 H          -4.4917    0.4401    2.4237 H       1  UNL1        0.0356
@<TRIPOS>BOND
     1     1     2    1
     2     2     3    2
     3     3     4   ar
     4     4     5   ar
     5     5     6   ar
     6     6     7   ar
     7     7     8   ar
     8     8     9   ar
     9     9    10   ar
    10    10    11   ar
    11    11    12   ar
    12    12    13   ar
    13    13    14   ar
    14    14    15   ar
    15    15    16   ar
    16    16    17   ar
    17    17    18   ar
    18    18    19   ar
    19    19    20   ar
    20    20    21    2
    21     4    22    1
    22    22    23    2
    23    23    24    1
    24    24    25    2
    25    25    26    1
    26    21     1    1
    27    26    22    1
    28    20     3   ar
    29    19     6   ar
    30    17     8   ar
    31    16    11   ar
    32     1    27    1
    33     1    28    1
    34     2    29    1
    35     5    30    1
    36     7    31    1
    37     9    32    1
    38    10    33    1
    39    12    34    1
    40    13    35    1
    41    15    36    1
    42    18    37    1
    43    21    38    1
    44    23    39    1
    45    24    40    1
    46    25    41    1
    47    26    42    1
    48    26    43    1
