@<TRIPOS>MOLECULE
*****
 38 43 0 0 0
SMALL
GASTEIGER

@<TRIPOS>ATOM
      1 C           2.3784   -3.1758    0.8055 C.3     1  UNL1       -0.0148
      2 C           3.1855   -1.9861    0.3762 C.2     1  UNL1       -0.0719
      3 C           2.3712   -0.9430    0.1445 C.ar    1  UNL1       -0.0129
      4 C           2.7011    0.4074   -0.2951 C.ar    1  UNL1       -0.0018
      5 C           1.6732    1.2732   -0.4665 C.ar    1  UNL1       -0.0451
      6 C           0.2508    0.9000   -0.2387 C.ar    1  UNL1       -0.0147
      7 C          -0.7530    1.8596   -0.4490 C.ar    1  UNL1       -0.0279
      8 C          -2.0958    1.5747   -0.2499 C.ar    1  UNL1        0.0736
      9 N          -3.0072    2.5366   -0.4687 N.ar    1  UNL1       -0.2542
     10 C          -4.3268    2.2829   -0.2809 C.ar    1  UNL1        0.0374
     11 C          -4.7625    1.0242    0.1413 C.ar    1  UNL1        0.0184
     12 C          -6.0382    0.4598    0.4206 C.ar    1  UNL1       -0.0352
     13 C          -5.8432   -0.8464    0.8048 C.ar    1  UNL1        0.0028
     14 N          -4.4970   -1.0966    0.7692 N.ar    1  UNL1       -0.3601
     15 C          -3.8103    0.0289    0.3670 C.ar    1  UNL1        0.0572
     16 C          -2.4315    0.2726    0.1774 C.ar    1  UNL1        0.0249
     17 C          -1.4483   -0.7147    0.3983 C.ar    1  UNL1       -0.0423
     18 C          -0.1048   -0.4012    0.1901 C.ar    1  UNL1       -0.0097
     19 C           0.9920   -1.3564    0.3888 C.ar    1  UNL1       -0.0135
     20 C           0.9750   -2.6427    0.7745 C.2     1  UNL1       -0.0719
     21 C           4.0291    0.8896   -0.5143 C.ar    1  UNL1        0.0394
     22 C           5.0928    0.9802    0.3704 C.ar    1  UNL1        0.0425
     23 N           6.2810    1.4686   -0.1393 N.ar    1  UNL1       -0.2551
     24 C           6.1173    1.7429   -1.4133 C.ar    1  UNL1        0.0652
     25 S           4.5636    1.4344   -2.0644 S.2     1  UNL1       -0.0754
     26 H           2.4991   -4.0074    0.1051 H       1  UNL1        0.0350
     27 H           2.6558   -3.4979    1.8134 H       1  UNL1        0.0350
     28 H           4.2598   -1.9962    0.2695 H       1  UNL1        0.0581
     29 H           1.8531    2.3011   -0.7719 H       1  UNL1        0.0630
     30 H          -0.4903    2.8626   -0.7782 H       1  UNL1        0.0645
     31 H          -5.0053    3.1054   -0.4765 H       1  UNL1        0.0836
     32 H          -6.9957    0.9593    0.3474 H       1  UNL1        0.0639
     33 H          -6.5434   -1.6168    1.0993 H       1  UNL1        0.0807
     34 H          -4.0673   -1.9803    1.0042 H       1  UNL1        0.1654
     35 H          -1.7304   -1.7086    0.7262 H       1  UNL1        0.0631
     36 H           0.1071   -3.2322    1.0233 H       1  UNL1        0.0581
     37 H           5.0487    0.6984    1.4161 H       1  UNL1        0.0841
     38 H           6.9167    2.1401   -2.0250 H       1  UNL1        0.0907
@<TRIPOS>BOND
     1     1     2    1
     2     2     3    2
     3     3     4   ar
     4     4     5   ar
     5     5     6   ar
     6     6     7   ar
     7     7     8   ar
     8     8     9   ar
     9     9    10   ar
    10    10    11   ar
    11    11    12   ar
    12    12    13   ar
    13    13    14   ar
    14    14    15   ar
    15    15    16   ar
    16    16    17   ar
    17    17    18   ar
    18    18    19   ar
    19    19    20    2
    20     4    21    1
    21    21    22   ar
    22    22    23   ar
    23    23    24   ar
    24    24    25   ar
    25    20     1    1
    26    25    21   ar
    27    19     3   ar
    28    18     6   ar
    29    16     8   ar
    30    15    11   ar
    31     1    26    1
    32     1    27    1
    33     2    28    1
    34     5    29    1
    35     7    30    1
    36    10    31    1
    37    12    32    1
    38    13    33    1
    39    14    34    1
    40    17    35    1
    41    20    36    1
    42    22    37    1
    43    24    38    1
