@<TRIPOS>MOLECULE
*****
 50 57 0 0 0
SMALL
GASTEIGER

@<TRIPOS>ATOM
      1 C           2.3423    0.6571   -3.2409 C.3     1  UNL1       -0.0148
      2 C           3.1066    0.7340   -1.9607 C.2     1  UNL1       -0.0719
      3 C           2.2627    0.6112   -0.9230 C.ar    1  UNL1       -0.0130
      4 C           2.5627    0.7642    0.4891 C.ar    1  UNL1       -0.0030
      5 C           1.5132    0.7733    1.3382 C.ar    1  UNL1       -0.0452
      6 C           0.1097    0.5797    0.8911 C.ar    1  UNL1       -0.0161
      7 C          -0.8878    0.6471    1.8559 C.ar    1  UNL1       -0.0534
      8 C          -2.2163    0.4086    1.5101 C.ar    1  UNL1       -0.0528
      9 C          -2.6133    0.0338    0.2104 C.ar    1  UNL1       -0.0089
     10 C          -1.5842   -0.1106   -0.7647 C.ar    1  UNL1       -0.0090
     11 C          -1.9581   -0.6881   -1.9957 C.ar    1  UNL1       -0.0528
     12 C          -3.2737   -1.0340   -2.3186 C.ar    1  UNL1       -0.0534
     13 C          -4.3213   -0.8141   -1.4365 C.ar    1  UNL1       -0.0166
     14 C          -5.6503   -1.1797   -1.8768 C.ar    1  UNL1       -0.0533
     15 C          -6.8317   -1.0220   -1.1291 C.ar    1  UNL1       -0.0504
     16 C          -6.5309   -0.4430    0.0858 C.ar    1  UNL1        0.0205
     17 C          -7.4468   -0.1028    1.0433 C.ar    1  UNL1        0.0994
     18 O          -6.8041    0.4921    2.0865 O.2     1  UNL1       -0.4698
     19 C          -5.4704    0.5235    1.7817 C.ar    1  UNL1        0.1000
     20 C          -5.2332   -0.0728    0.5653 C.ar    1  UNL1        0.0281
     21 C          -3.9992   -0.2498   -0.1496 C.ar    1  UNL1        0.0006
     22 C          -0.2354    0.2704   -0.4521 C.ar    1  UNL1       -0.0027
     23 C           0.8969    0.3960   -1.4155 C.ar    1  UNL1       -0.0129
     24 C           0.9326    0.4818   -2.7587 C.2     1  UNL1       -0.0719
     25 C           3.8747    0.8961    1.0410 C.ar    1  UNL1        0.0239
     26 S           4.3978    2.3795    1.7933 S.2     1  UNL1       -0.0958
     27 C           5.9755    1.7692    2.1426 C.ar    1  UNL1       -0.0163
     28 C           6.0755    0.4919    1.6869 C.ar    1  UNL1       -0.0142
     29 C           7.0786   -0.5077    1.6698 C.2     1  UNL1       -0.0574
     30 C           6.5914   -1.6146    1.0635 C.2     1  UNL1       -0.0791
     31 C           5.1413   -1.4096    0.6090 C.3     1  UNL1       -0.0075
     32 C           4.9094   -0.0081    1.0651 C.ar    1  UNL1       -0.0217
     33 H           2.6629   -0.1941   -3.8482 H       1  UNL1        0.0350
     34 H           2.4468    1.5816   -3.8164 H       1  UNL1        0.0350
     35 H           4.1658    0.9348   -1.8995 H       1  UNL1        0.0581
     36 H           1.6706    0.8857    2.4080 H       1  UNL1        0.0630
     37 H          -0.6497    0.8825    2.8908 H       1  UNL1        0.0624
     38 H          -2.9295    0.4564    2.3219 H       1  UNL1        0.0624
     39 H          -1.2076   -0.9518   -2.7332 H       1  UNL1        0.0624
     40 H          -3.4550   -1.4843   -3.2935 H       1  UNL1        0.0624
     41 H          -5.7629   -1.6126   -2.8739 H       1  UNL1        0.0624
     42 H          -7.8127   -1.2972   -1.4872 H       1  UNL1        0.0625
     43 H          -8.5202   -0.1841    1.1388 H       1  UNL1        0.1035
     44 H          -4.8741    1.0175    2.5317 H       1  UNL1        0.1036
     45 H           0.0997    0.4815   -3.4415 H       1  UNL1        0.0581
     46 H           6.7089    2.3816    2.6471 H       1  UNL1        0.0699
     47 H           8.0722   -0.3943    2.0795 H       1  UNL1        0.0621
     48 H           7.1375   -2.5334    0.9107 H       1  UNL1        0.0575
     49 H           4.4737   -2.1165    1.1092 H       1  UNL1        0.0356
     50 H           5.0595   -1.5056   -0.4771 H       1  UNL1        0.0356
@<TRIPOS>BOND
     1     1     2    1
     2     2     3    2
     3     3     4   ar
     4     4     5   ar
     5     5     6   ar
     6     6     7   ar
     7     7     8   ar
     8     8     9   ar
     9     9    10   ar
    10    10    11   ar
    11    11    12   ar
    12    12    13   ar
    13    13    14   ar
    14    14    15   ar
    15    15    16   ar
    16    16    17   ar
    17    17    18   ar
    18    18    19   ar
    19    19    20   ar
    20    20    21   ar
    21    10    22   ar
    22    22    23   ar
    23    23    24    2
    24     4    25    1
    25    25    26   ar
    26    26    27   ar
    27    27    28   ar
    28    28    29    1
    29    29    30    2
    30    30    31    1
    31    31    32    1
    32    24     1    1
    33    32    25   ar
    34    23     3   ar
    35    32    28   ar
    36    22     6   ar
    37    21     9   ar
    38    21    13   ar
    39    20    16   ar
    40     1    33    1
    41     1    34    1
    42     2    35    1
    43     5    36    1
    44     7    37    1
    45     8    38    1
    46    11    39    1
    47    12    40    1
    48    14    41    1
    49    15    42    1
    50    17    43    1
    51    19    44    1
    52    24    45    1
    53    27    46    1
    54    29    47    1
    55    30    48    1
    56    31    49    1
    57    31    50    1
