@<TRIPOS>MOLECULE
*****
 47 54 0 0 0
SMALL
GASTEIGER

@<TRIPOS>ATOM
      1 C           2.0989    0.5459   -3.5999 C.3     1  UNL1        0.0000
      2 C           3.0678    0.1600   -2.5318 C.2     1  UNL1        0.0000
      3 C           2.4064   -0.0901   -1.3897 C.ar    1  UNL1        0.0000
      4 C           2.9620   -0.4950   -0.1082 C.ar    1  UNL1        0.0000
      5 C           2.0947   -0.7088    0.9051 C.ar    1  UNL1        0.0000
      6 C           0.6259   -0.5439    0.7591 C.ar    1  UNL1        0.0000
      7 C          -0.1691   -0.7938    1.8673 C.ar    1  UNL1        0.0000
      8 C          -1.5529   -0.6481    1.7883 C.ar    1  UNL1        0.0000
      9 C          -2.2024   -0.2419    0.5935 C.ar    1  UNL1        0.0000
     10 C          -1.3844    0.0121   -0.5324 C.ar    1  UNL1        0.0000
     11 S          -2.3659    0.5004   -1.8691 S.2     1  UNL1        0.0000
     12 C          -3.8164    0.3781   -1.0119 C.ar    1  UNL1        0.0000
     13 C          -5.0706    0.6774   -1.6322 C.ar    1  UNL1        0.0000
     14 C          -6.1898    0.5624   -0.8958 C.ar    1  UNL1        0.0000
     15 C          -6.1038    0.1423    0.4923 C.ar    1  UNL1        0.0000
     16 C          -7.1793    0.0023    1.2905 C.2     1  UNL1        0.0000
     17 SI         -6.6782   -0.5599    2.9931 Si      1  UNL1        0.0000
     18 C          -4.8950   -0.5517    2.4179 C.2     1  UNL1        0.0000
     19 C          -4.7870   -0.1712    1.1297 C.ar    1  UNL1        0.0000
     20 C          -3.6072   -0.0301    0.2985 C.ar    1  UNL1        0.0000
     21 C           0.0336   -0.1383   -0.4685 C.ar    1  UNL1        0.0000
     22 C           0.9637    0.0979   -1.6001 C.ar    1  UNL1        0.0000
     23 C           0.7846    0.4662   -2.8819 C.2     1  UNL1        0.0000
     24 C           4.3462   -0.6730    0.1657 C.ar    1  UNL1        0.0000
     25 S           5.1133   -2.2164    0.2767 S.2     1  UNL1        0.0000
     26 C           6.6647   -1.5323    0.5851 C.ar    1  UNL1        0.0000
     27 C           6.5339   -0.1872    0.5866 C.ar    1  UNL1        0.0000
     28 C           7.4482    0.8758    0.7802 C.ar    1  UNL1        0.0000
     29 C           6.8339    2.1305    0.6897 C.ar    1  UNL1        0.0000
     30 S           5.1041    2.1324    0.3676 S.2     1  UNL1        0.0000
     31 C           5.2591    0.3311    0.3572 C.ar    1  UNL1        0.0000
     32 H           2.2903    1.5608   -3.9606 H       1  UNL1        0.0000
     33 H           2.1330   -0.1564   -4.4381 H       1  UNL1        0.0000
     34 H           4.1355    0.1000   -2.6782 H       1  UNL1        0.0000
     35 H           2.4551   -1.0052    1.8873 H       1  UNL1        0.0000
     36 H           0.2700   -1.1053    2.8122 H       1  UNL1        0.0000
     37 H          -2.1244   -0.8547    2.6849 H       1  UNL1        0.0000
     38 H          -5.1145    0.9875   -2.6713 H       1  UNL1        0.0000
     39 H          -7.1621    0.7776   -1.3254 H       1  UNL1        0.0000
     40 H          -8.2125    0.1735    1.0327 H       1  UNL1        0.0000
     41 H          -7.1596   -1.9264    3.3049 H       1  UNL1        0.0000
     42 H          -6.9377    0.4634    4.0331 H       1  UNL1        0.0000
     43 H          -4.1281   -0.8357    3.1117 H       1  UNL1        0.0000
     44 H          -0.1394    0.6847   -3.3876 H       1  UNL1        0.0000
     45 H           7.5367   -2.1517    0.7378 H       1  UNL1        0.0000
     46 H           8.5070    0.7602    0.9769 H       1  UNL1        0.0000
     47 H           7.3119    3.0944    0.7992 H       1  UNL1        0.0000
@<TRIPOS>BOND
     1     1     2    1
     2     2     3    2
     3     3     4   ar
     4     4     5   ar
     5     5     6   ar
     6     6     7   ar
     7     7     8   ar
     8     8     9   ar
     9     9    10   ar
    10    10    11   ar
    11    11    12   ar
    12    12    13   ar
    13    13    14   ar
    14    14    15   ar
    15    15    16    2
    16    16    17    1
    17    17    18    1
    18    18    19    2
    19    19    20   ar
    20    10    21   ar
    21    21    22   ar
    22    22    23    2
    23     4    24    1
    24    24    25   ar
    25    25    26   ar
    26    26    27   ar
    27    27    28   ar
    28    28    29   ar
    29    29    30   ar
    30    30    31   ar
    31    23     1    1
    32    31    24   ar
    33    22     3   ar
    34    31    27   ar
    35    21     6   ar
    36    20     9   ar
    37    20    12   ar
    38    19    15   ar
    39     1    32    1
    40     1    33    1
    41     2    34    1
    42     5    35    1
    43     7    36    1
    44     8    37    1
    45    13    38    1
    46    14    39    1
    47    16    40    1
    48    17    41    1
    49    17    42    1
    50    18    43    1
    51    23    44    1
    52    26    45    1
    53    28    46    1
    54    29    47    1
