@<TRIPOS>MOLECULE
*****
 45 51 0 0 0
SMALL
GASTEIGER

@<TRIPOS>ATOM
      1 C          -1.9025   -2.8545   -1.6779 C.3     1  UNL1        0.0000
      2 C          -2.9430   -1.9712   -1.0675 C.2     1  UNL1        0.0000
      3 C          -2.3501   -0.9257   -0.4683 C.ar    1  UNL1        0.0000
      4 C          -2.9773    0.2606    0.0872 C.ar    1  UNL1        0.0000
      5 C          -2.1594    1.2853    0.4143 C.ar    1  UNL1        0.0000
      6 C          -0.6782    1.2075    0.2932 C.ar    1  UNL1        0.0000
      7 C           0.0631    2.3603    0.5518 C.ar    1  UNL1        0.0000
      8 C           1.4591    2.3361    0.5166 C.ar    1  UNL1        0.0000
      9 C           2.1858    1.1464    0.3330 C.ar    1  UNL1        0.0000
     10 C           3.6367    1.1482    0.3707 C.ar    1  UNL1        0.0000
     11 SI          4.8541    2.6223    0.5373 Si      1  UNL1        0.0000
     12 C           6.2977    1.4182    0.5090 C.2     1  UNL1        0.0000
     13 C           5.9155    0.1343    0.3940 C.2     1  UNL1        0.0000
     14 C           4.4684   -0.0115    0.3139 C.ar    1  UNL1        0.0000
     15 C           3.7193   -1.1679    0.2646 C.ar    1  UNL1        0.0000
     16 C           4.1682   -2.4592    0.3321 C.ar    1  UNL1        0.0000
     17 O           3.0996   -3.3051    0.3850 O.2     1  UNL1        0.0000
     18 C           1.9698   -2.5368    0.3442 C.ar    1  UNL1        0.0000
     19 C           2.2899   -1.2091    0.1889 C.ar    1  UNL1        0.0000
     20 C           1.4166   -0.0701    0.1373 C.ar    1  UNL1        0.0000
     21 C          -0.0094   -0.0036   -0.0245 C.ar    1  UNL1        0.0000
     22 C          -0.8950   -1.0614   -0.5658 C.ar    1  UNL1        0.0000
     23 C          -0.6330   -2.1300   -1.3391 C.2     1  UNL1        0.0000
     24 C          -4.3751    0.4287    0.2892 C.ar    1  UNL1        0.0000
     25 C          -5.3085   -0.2338    1.0621 C.ar    1  UNL1        0.0000
     26 C          -6.5677    0.3716    0.8301 C.ar    1  UNL1        0.0000
     27 C          -6.3755    1.3770   -0.0903 C.ar    1  UNL1        0.0000
     28 N          -5.0447    1.3985   -0.4207 N.ar    1  UNL1        0.0000
     29 H          -2.0352   -2.9234   -2.7616 H       1  UNL1        0.0000
     30 H          -1.9182   -3.8561   -1.2391 H       1  UNL1        0.0000
     31 H          -4.0067   -2.1173   -1.1811 H       1  UNL1        0.0000
     32 H          -2.5615    2.2021    0.8372 H       1  UNL1        0.0000
     33 H          -0.4363    3.3017    0.7711 H       1  UNL1        0.0000
     34 H           1.9651    3.2819    0.6954 H       1  UNL1        0.0000
     35 H           4.8292    3.5040   -0.6562 H       1  UNL1        0.0000
     36 H           4.7160    3.3135    1.8434 H       1  UNL1        0.0000
     37 H           7.3130    1.7764    0.5848 H       1  UNL1        0.0000
     38 H           6.5912   -0.7088    0.3633 H       1  UNL1        0.0000
     39 H           5.1385   -2.9304    0.3948 H       1  UNL1        0.0000
     40 H           1.0512   -3.0924    0.4618 H       1  UNL1        0.0000
     41 H           0.3287   -2.4360   -1.7190 H       1  UNL1        0.0000
     42 H          -5.0997   -1.0629    1.7261 H       1  UNL1        0.0000
     43 H          -7.5124    0.0980    1.2818 H       1  UNL1        0.0000
     44 H          -7.0689    2.0728   -0.5431 H       1  UNL1        0.0000
     45 H          -4.6184    2.0217   -1.0939 H       1  UNL1        0.0000
@<TRIPOS>BOND
     1     1     2    1
     2     2     3    2
     3     3     4   ar
     4     4     5   ar
     5     5     6   ar
     6     6     7   ar
     7     7     8   ar
     8     8     9   ar
     9     9    10   ar
    10    10    11    1
    11    11    12    1
    12    12    13    2
    13    13    14    1
    14    14    15   ar
    15    15    16   ar
    16    16    17   ar
    17    17    18   ar
    18    18    19   ar
    19    19    20   ar
    20    20    21   ar
    21    21    22   ar
    22    22    23    2
    23     4    24    1
    24    24    25   ar
    25    25    26   ar
    26    26    27   ar
    27    27    28   ar
    28    23     1    1
    29    28    24   ar
    30    22     3   ar
    31    21     6   ar
    32    20     9   ar
    33    14    10   ar
    34    19    15   ar
    35     1    29    1
    36     1    30    1
    37     2    31    1
    38     5    32    1
    39     7    33    1
    40     8    34    1
    41    11    35    1
    42    11    36    1
    43    12    37    1
    44    13    38    1
    45    16    39    1
    46    18    40    1
    47    23    41    1
    48    25    42    1
    49    26    43    1
    50    27    44    1
    51    28    45    1
