@<TRIPOS>MOLECULE
*****
 43 49 0 0 0
SMALL
GASTEIGER

@<TRIPOS>ATOM
      1 C          -0.2577   -2.0160    2.6441 C.3     1  UNL1        0.0000
      2 C          -1.3848   -1.7109    1.7023 C.2     1  UNL1        0.0000
      3 C          -0.9240   -1.0035    0.6576 C.ar    1  UNL1        0.0000
      4 C          -1.6496   -0.4909   -0.4983 C.ar    1  UNL1        0.0000
      5 C          -0.9471    0.1922   -1.4338 C.ar    1  UNL1        0.0000
      6 C           0.5185    0.4283   -1.3311 C.ar    1  UNL1        0.0000
      7 C           1.1757    1.1370   -2.3450 C.ar    1  UNL1        0.0000
      8 C           2.5551    1.3853   -2.2818 C.ar    1  UNL1        0.0000
      9 C           3.2841    0.9125   -1.1778 C.ar    1  UNL1        0.0000
     10 C           4.6182    0.9513   -0.7592 C.ar    1  UNL1        0.0000
     11 C           5.9566    1.4442   -1.1441 C.3     1  UNL1        0.0000
     12 C           6.7795    0.9361    0.0565 C.2     1  UNL1        0.0000
     13 C           6.0157    0.2708    0.9561 C.2     1  UNL1        0.0000
     14 C           4.7059    0.2913    0.4418 C.ar    1  UNL1        0.0000
     15 O           3.4990   -0.1728    0.8231 O.2     1  UNL1        0.0000
     16 C           2.6150    0.2026   -0.1663 C.ar    1  UNL1        0.0000
     17 C           1.2427   -0.0561   -0.2108 C.ar    1  UNL1        0.0000
     18 C           0.5137   -0.7947    0.8201 C.ar    1  UNL1        0.0000
     19 C           0.9142   -1.3709    1.9648 C.2     1  UNL1        0.0000
     20 C          -3.0590   -0.6150   -0.6950 C.ar    1  UNL1        0.0000
     21 S          -3.7063   -1.7465   -1.8473 S.2     1  UNL1        0.0000
     22 C          -5.3448   -1.3260   -1.4939 C.ar    1  UNL1        0.0000
     23 C          -5.3980   -0.3610   -0.5263 C.ar    1  UNL1        0.0000
     24 C          -6.5159    0.2904    0.0839 C.2     1  UNL1        0.0000
     25 C          -6.1946    1.2094    1.0210 C.2     1  UNL1        0.0000
     26 SI         -4.2901    1.3491    1.2398 Si      1  UNL1        0.0000
     27 C          -4.1045    0.0229   -0.0878 C.ar    1  UNL1        0.0000
     28 H          -0.4357   -1.5733    3.6284 H       1  UNL1        0.0000
     29 H          -0.1096   -3.0950    2.7452 H       1  UNL1        0.0000
     30 H          -2.4049   -2.0290    1.8559 H       1  UNL1        0.0000
     31 H          -1.4445    0.6073   -2.3066 H       1  UNL1        0.0000
     32 H           0.6202    1.5076   -3.2044 H       1  UNL1        0.0000
     33 H           3.0480    1.9359   -3.0777 H       1  UNL1        0.0000
     34 H           6.3117    0.9937   -2.0749 H       1  UNL1        0.0000
     35 H           5.9942    2.5351   -1.2049 H       1  UNL1        0.0000
     36 H           7.8429    1.1012    0.1515 H       1  UNL1        0.0000
     37 H           6.3227   -0.1890    1.8819 H       1  UNL1        0.0000
     38 H           1.9197   -1.3894    2.3559 H       1  UNL1        0.0000
     39 H          -6.1553   -1.8146   -2.0156 H       1  UNL1        0.0000
     40 H          -7.5377    0.0569   -0.1919 H       1  UNL1        0.0000
     41 H          -6.8619    1.8194    1.6078 H       1  UNL1        0.0000
     42 H          -3.8253    2.6987    0.8316 H       1  UNL1        0.0000
     43 H          -3.9019    0.9144    2.6052 H       1  UNL1        0.0000
@<TRIPOS>BOND
     1     1     2    1
     2     2     3    2
     3     3     4   ar
     4     4     5   ar
     5     5     6   ar
     6     6     7   ar
     7     7     8   ar
     8     8     9   ar
     9     9    10   ar
    10    10    11    1
    11    11    12    1
    12    12    13    2
    13    13    14    1
    14    14    15   ar
    15    15    16   ar
    16    16    17   ar
    17    17    18   ar
    18    18    19    2
    19     4    20    1
    20    20    21   ar
    21    21    22   ar
    22    22    23   ar
    23    23    24    1
    24    24    25    2
    25    25    26    1
    26    26    27    1
    27    19     1    1
    28    27    20   ar
    29    18     3   ar
    30    27    23   ar
    31    17     6   ar
    32    16     9   ar
    33    14    10   ar
    34     1    28    1
    35     1    29    1
    36     2    30    1
    37     5    31    1
    38     7    32    1
    39     8    33    1
    40    11    34    1
    41    11    35    1
    42    12    36    1
    43    13    37    1
    44    19    38    1
    45    22    39    1
    46    24    40    1
    47    25    41    1
    48    26    42    1
    49    26    43    1
