@<TRIPOS>MOLECULE
*****
 42 48 0 0 0
SMALL
GASTEIGER

@<TRIPOS>ATOM
      1 C          -0.9869   -2.9255    2.1342 C.3     1  UNL1       -0.0148
      2 C          -2.0096   -2.2443    1.2871 C.2     1  UNL1       -0.0719
      3 C          -1.4233   -1.2805    0.5582 C.ar    1  UNL1       -0.0130
      4 C          -2.0652   -0.3057   -0.3043 C.ar    1  UNL1       -0.0027
      5 C          -1.2875    0.6778   -0.8040 C.ar    1  UNL1       -0.0452
      6 C           0.1786    0.7523   -0.5690 C.ar    1  UNL1       -0.0161
      7 C           0.8562    1.8418   -1.1310 C.ar    1  UNL1       -0.0533
      8 C           2.2345    1.9447   -1.0148 C.ar    1  UNL1       -0.0499
      9 C           2.9557    0.9209   -0.3819 C.ar    1  UNL1        0.0256
     10 C           4.3620    1.0210   -0.3316 C.ar    1  UNL1        0.1425
     11 O           5.1225    2.0550   -0.8057 O.2     1  UNL1       -0.4623
     12 C           6.4206    1.7458   -0.5563 C.ar    1  UNL1        0.0932
     13 C           6.5152    0.5239    0.0668 C.ar    1  UNL1       -0.0161
     14 C           5.1863    0.0473    0.2155 C.ar    1  UNL1        0.0207
     15 C           4.5917   -1.1086    0.7335 C.ar    1  UNL1       -0.0504
     16 C           3.1878   -1.2230    0.7017 C.ar    1  UNL1       -0.0526
     17 C           2.3252   -0.2176    0.1876 C.ar    1  UNL1       -0.0061
     18 C           0.8921   -0.2567    0.1551 C.ar    1  UNL1       -0.0026
     19 C           0.0210   -1.2650    0.8231 C.ar    1  UNL1       -0.0129
     20 C           0.2667   -2.1827    1.7769 C.2     1  UNL1       -0.0719
     21 C          -3.4544   -0.2712   -0.6301 C.ar    1  UNL1        0.0281
     22 S          -4.1538   -1.4443   -1.7013 S.2     1  UNL1       -0.0949
     23 C          -5.7329   -0.7624   -1.5934 C.ar    1  UNL1       -0.0094
     24 C          -5.7265    0.3229   -0.7666 C.ar    1  UNL1        0.0269
     25 S          -7.0496    1.4346   -0.2618 S.2     1  UNL1       -0.0961
     26 C          -5.8035    2.2417    0.6830 C.ar    1  UNL1       -0.0231
     27 C          -4.5158    1.6986    0.6028 C.ar    1  UNL1       -0.0459
     28 C          -4.4547    0.5668   -0.2527 C.ar    1  UNL1        0.0040
     29 H          -1.2191   -2.8126    3.1973 H       1  UNL1        0.0350
     30 H          -0.9035   -3.9873    1.8853 H       1  UNL1        0.0350
     31 H          -3.0648   -2.4700    1.3170 H       1  UNL1        0.0581
     32 H          -1.7156    1.4471   -1.4421 H       1  UNL1        0.0630
     33 H           0.3172    2.6195   -1.6671 H       1  UNL1        0.0624
     34 H           2.7461    2.8007   -1.4494 H       1  UNL1        0.0625
     35 H           7.1450    2.4805   -0.8788 H       1  UNL1        0.1030
     36 H           7.4284    0.0339    0.3720 H       1  UNL1        0.0655
     37 H           5.1961   -1.9137    1.1412 H       1  UNL1        0.0625
     38 H           2.7848   -2.1648    1.0558 H       1  UNL1        0.0624
     39 H           1.1939   -2.3791    2.2857 H       1  UNL1        0.0581
     40 H          -6.5790   -1.1741   -2.1257 H       1  UNL1        0.0705
     41 H          -6.1078    3.1009    1.2652 H       1  UNL1        0.0694
     42 H          -3.6741    2.1118    1.1457 H       1  UNL1        0.0629
@<TRIPOS>BOND
     1     1     2    1
     2     2     3    2
     3     3     4   ar
     4     4     5   ar
     5     5     6   ar
     6     6     7   ar
     7     7     8   ar
     8     8     9   ar
     9     9    10   ar
    10    10    11   ar
    11    11    12   ar
    12    12    13   ar
    13    13    14   ar
    14    14    15   ar
    15    15    16   ar
    16    16    17   ar
    17    17    18   ar
    18    18    19   ar
    19    19    20    2
    20     4    21    1
    21    21    22   ar
    22    22    23   ar
    23    23    24   ar
    24    24    25   ar
    25    25    26   ar
    26    26    27   ar
    27    27    28   ar
    28    20     1    1
    29    28    21   ar
    30    19     3   ar
    31    28    24   ar
    32    18     6   ar
    33    17     9   ar
    34    14    10   ar
    35     1    29    1
    36     1    30    1
    37     2    31    1
    38     5    32    1
    39     7    33    1
    40     8    34    1
    41    12    35    1
    42    13    36    1
    43    15    37    1
    44    16    38    1
    45    20    39    1
    46    23    40    1
    47    26    41    1
    48    27    42    1
