@<TRIPOS>MOLECULE
*****
 42 48 0 0 0
SMALL
GASTEIGER

@<TRIPOS>ATOM
      1 SI         -1.4633   -4.0305    0.1064 Si      1  UNL1        0.0000
      2 C          -2.5581   -2.6187   -0.3847 C.2     1  UNL1        0.0000
      3 C          -1.9211   -1.4312   -0.2948 C.ar    1  UNL1        0.0000
      4 C          -2.4818   -0.1700   -0.7840 C.ar    1  UNL1        0.0000
      5 C          -1.6645    0.9018   -0.8463 C.ar    1  UNL1        0.0000
      6 C          -0.2906    0.8571   -0.3336 C.ar    1  UNL1        0.0000
      7 C           0.5715    1.9482   -0.4050 C.ar    1  UNL1        0.0000
      8 C           0.3537    3.1465   -1.0367 C.ar    1  UNL1        0.0000
      9 O           1.4413    3.9503   -0.8867 O.2     1  UNL1        0.0000
     10 C           2.3563    3.2598   -0.1453 C.ar    1  UNL1        0.0000
     11 C           1.8752    2.0134    0.1799 C.ar    1  UNL1        0.0000
     12 C           2.4554    0.9970    0.9638 C.ar    1  UNL1        0.0000
     13 C           3.7272    1.0467    1.6063 C.ar    1  UNL1        0.0000
     14 S           4.9731    2.2525    1.5470 S.2     1  UNL1        0.0000
     15 C           6.0021    1.4030    2.5948 C.ar    1  UNL1        0.0000
     16 C           5.4397    0.2236    3.0081 C.ar    1  UNL1        0.0000
     17 C           4.1363    0.0019    2.4474 C.ar    1  UNL1        0.0000
     18 C           3.2524   -1.0726    2.6553 C.ar    1  UNL1        0.0000
     19 C           2.0170   -1.1250    1.9985 C.ar    1  UNL1        0.0000
     20 C           1.5800   -0.1507    1.0881 C.ar    1  UNL1        0.0000
     21 C           0.2976   -0.2527    0.3597 C.ar    1  UNL1        0.0000
     22 C          -0.5252   -1.5090    0.2305 C.ar    1  UNL1        0.0000
     23 C          -0.1003   -2.7826    0.3887 C.2     1  UNL1        0.0000
     24 C          -3.8193    0.0150   -1.2637 C.ar    1  UNL1        0.0000
     25 C          -4.2658    0.1724   -2.5653 C.ar    1  UNL1        0.0000
     26 C          -5.6785    0.3383   -2.6505 C.ar    1  UNL1        0.0000
     27 C          -6.2745    0.3058   -1.4109 C.ar    1  UNL1        0.0000
     28 S          -5.1371    0.0767   -0.1560 S.2     1  UNL1        0.0000
     29 H          -1.1595   -4.9450   -1.0202 H       1  UNL1        0.0000
     30 H          -1.8880   -4.6856    1.3669 H       1  UNL1        0.0000
     31 H          -3.5495   -2.7975   -0.7712 H       1  UNL1        0.0000
     32 H          -2.0351    1.8499   -1.2225 H       1  UNL1        0.0000
     33 H          -0.4557    3.5744   -1.6108 H       1  UNL1        0.0000
     34 H           3.2611    3.8144    0.0491 H       1  UNL1        0.0000
     35 H           6.9684    1.8068    2.8644 H       1  UNL1        0.0000
     36 H           5.9336   -0.4608    3.6870 H       1  UNL1        0.0000
     37 H           3.5232   -1.8723    3.3414 H       1  UNL1        0.0000
     38 H           1.3709   -1.9518    2.2784 H       1  UNL1        0.0000
     39 H           0.8867   -3.1434    0.6195 H       1  UNL1        0.0000
     40 H          -3.6013    0.1635   -3.4213 H       1  UNL1        0.0000
     41 H          -6.2279    0.4741   -3.5738 H       1  UNL1        0.0000
     42 H          -7.3256    0.4061   -1.1779 H       1  UNL1        0.0000
@<TRIPOS>BOND
     1     1     2    1
     2     2     3    2
     3     3     4   ar
     4     4     5   ar
     5     5     6   ar
     6     6     7   ar
     7     7     8   ar
     8     8     9   ar
     9     9    10   ar
    10    10    11   ar
    11    11    12   ar
    12    12    13   ar
    13    13    14   ar
    14    14    15   ar
    15    15    16   ar
    16    16    17   ar
    17    17    18   ar
    18    18    19   ar
    19    19    20   ar
    20    20    21   ar
    21    21    22   ar
    22    22    23    2
    23     4    24    1
    24    24    25   ar
    25    25    26   ar
    26    26    27   ar
    27    27    28   ar
    28    23     1    1
    29    28    24   ar
    30    22     3   ar
    31    21     6   ar
    32    11     7   ar
    33    20    12   ar
    34    17    13   ar
    35     1    29    1
    36     1    30    1
    37     2    31    1
    38     5    32    1
    39     8    33    1
    40    10    34    1
    41    15    35    1
    42    16    36    1
    43    18    37    1
    44    19    38    1
    45    23    39    1
    46    25    40    1
    47    26    41    1
    48    27    42    1
