@<TRIPOS>MOLECULE
*****
 46 52 0 0 0
SMALL
GASTEIGER

@<TRIPOS>ATOM
      1 C          -1.3750   -3.1600   -0.0081 C.3     1  UNL1       -0.0148
      2 C          -2.5117   -2.1876   -0.0048 C.2     1  UNL1       -0.0720
      3 C          -2.0364   -0.9375    0.1191 C.ar    1  UNL1       -0.0138
      4 C          -2.7826    0.2932    0.3226 C.ar    1  UNL1       -0.0136
      5 C          -2.0581    1.3954    0.6159 C.ar    1  UNL1       -0.0460
      6 C          -0.5723    1.4050    0.6836 C.ar    1  UNL1       -0.0161
      7 C           0.0519    2.5778    1.1192 C.ar    1  UNL1       -0.0534
      8 C           1.4398    2.6537    1.1818 C.ar    1  UNL1       -0.0523
      9 C           2.2315    1.6012    0.7046 C.ar    1  UNL1       -0.0024
     10 C           3.7162    1.6338    0.7919 C.ar    1  UNL1        0.0276
     11 S           4.6097    2.8183    1.6447 S.2     1  UNL1       -0.0960
     12 C           6.1021    2.0719    1.2643 C.ar    1  UNL1       -0.0231
     13 C           5.9364    0.9376    0.5004 C.ar    1  UNL1       -0.0464
     14 C           4.5631    0.6878    0.2355 C.ar    1  UNL1       -0.0028
     15 C           3.9809   -0.3522   -0.5376 C.ar    1  UNL1       -0.0130
     16 C           4.5625   -1.2387   -1.3581 C.2     1  UNL1       -0.0719
     17 C           3.5045   -1.9713   -2.1216 C.3     1  UNL1       -0.0148
     18 C           2.2441   -1.3401   -1.6079 C.2     1  UNL1       -0.0719
     19 C           2.5200   -0.4594   -0.6277 C.ar    1  UNL1       -0.0129
     20 C           1.6065    0.4416    0.1365 C.ar    1  UNL1       -0.0011
     21 C           0.2083    0.2816    0.2827 C.ar    1  UNL1       -0.0021
     22 C          -0.5716   -0.9704    0.1287 C.ar    1  UNL1       -0.0129
     23 C          -0.1863   -2.2591    0.1377 C.2     1  UNL1       -0.0719
     24 C          -4.2216    0.4065    0.2568 C.2     1  UNL1       -0.0359
     25 C          -4.9490    0.9787   -0.7166 C.2     1  UNL1       -0.0580
     26 C          -6.3477    0.8874   -0.3850 C.2     1  UNL1       -0.0651
     27 C          -6.4876    0.2626    0.7931 C.2     1  UNL1       -0.0797
     28 C          -5.1358   -0.1158    1.3333 C.3     1  UNL1       -0.0086
     29 H          -1.4487   -3.8511    0.8368 H       1  UNL1        0.0350
     30 H          -1.3337   -3.7241   -0.9442 H       1  UNL1        0.0350
     31 H          -3.5507   -2.4771   -0.0260 H       1  UNL1        0.0581
     32 H          -2.5577    2.3436    0.7977 H       1  UNL1        0.0630
     33 H          -0.5359    3.4322    1.4471 H       1  UNL1        0.0624
     34 H           1.8863    3.5605    1.5808 H       1  UNL1        0.0624
     35 H           7.0287    2.5025    1.6179 H       1  UNL1        0.0694
     36 H           6.7623    0.3293    0.1546 H       1  UNL1        0.0629
     37 H           5.6215   -1.3514   -1.5292 H       1  UNL1        0.0581
     38 H           3.6134   -1.8051   -3.1975 H       1  UNL1        0.0350
     39 H           3.5272   -3.0440   -1.9094 H       1  UNL1        0.0350
     40 H           1.2700   -1.5691   -2.0116 H       1  UNL1        0.0581
     41 H           0.8195   -2.6310    0.2523 H       1  UNL1        0.0581
     42 H          -4.5676    1.4399   -1.6152 H       1  UNL1        0.0620
     43 H          -7.1441    1.2712   -1.0044 H       1  UNL1        0.0615
     44 H          -7.4236    0.0553    1.2890 H       1  UNL1        0.0575
     45 H          -5.0588   -1.2002    1.4527 H       1  UNL1        0.0356
     46 H          -4.9500    0.3767    2.2931 H       1  UNL1        0.0356
@<TRIPOS>BOND
     1     1     2    1
     2     2     3    2
     3     3     4   ar
     4     4     5   ar
     5     5     6   ar
     6     6     7   ar
     7     7     8   ar
     8     8     9   ar
     9     9    10   ar
    10    10    11   ar
    11    11    12   ar
    12    12    13   ar
    13    13    14   ar
    14    14    15   ar
    15    15    16    2
    16    16    17    1
    17    17    18    1
    18    18    19    2
    19    19    20   ar
    20    20    21   ar
    21    21    22   ar
    22    22    23    2
    23     4    24    1
    24    24    25    2
    25    25    26    1
    26    26    27    2
    27    27    28    1
    28    23     1    1
    29    28    24    1
    30    22     3   ar
    31    21     6   ar
    32    20     9   ar
    33    14    10   ar
    34    19    15   ar
    35     1    29    1
    36     1    30    1
    37     2    31    1
    38     5    32    1
    39     7    33    1
    40     8    34    1
    41    12    35    1
    42    13    36    1
    43    16    37    1
    44    17    38    1
    45    17    39    1
    46    18    40    1
    47    23    41    1
    48    25    42    1
    49    26    43    1
    50    27    44    1
    51    28    45    1
    52    28    46    1
