@<TRIPOS>MOLECULE
*****
 33 37 0 0 0
SMALL
GASTEIGER

@<TRIPOS>ATOM
      1 C          -0.4783    1.7555    2.7330 C.3     1  UNL1       -0.0148
      2 C          -1.5919    1.3069    1.8426 C.2     1  UNL1       -0.0719
      3 C          -1.0941    0.6040    0.8119 C.ar    1  UNL1       -0.0129
      4 C          -1.8193   -0.0263   -0.2840 C.ar    1  UNL1       -0.0018
      5 C          -1.0943   -0.7010   -1.2054 C.ar    1  UNL1       -0.0451
      6 C           0.3851   -0.8288   -1.1380 C.ar    1  UNL1       -0.0147
      7 C           1.0375   -1.5549   -2.1372 C.ar    1  UNL1       -0.0533
      8 C           2.4270   -1.6989   -2.1240 C.ar    1  UNL1       -0.0520
      9 C           3.1810   -1.1049   -1.0947 C.ar    1  UNL1        0.0003
     10 C           4.5752   -1.0721   -0.8150 C.ar    1  UNL1       -0.0366
     11 C           4.7513   -0.3370    0.3305 C.ar    1  UNL1        0.0027
     12 N           3.5163    0.0751    0.7533 N.ar    1  UNL1       -0.3602
     13 C           2.5254   -0.3762   -0.0922 C.ar    1  UNL1        0.0548
     14 C           1.1248   -0.2211   -0.0846 C.ar    1  UNL1        0.0134
     15 C           0.3670    0.5234    0.9363 C.ar    1  UNL1       -0.0115
     16 C           0.7313    1.1896    2.0461 C.2     1  UNL1       -0.0719
     17 C          -3.2338    0.0534   -0.4766 C.ar    1  UNL1        0.0394
     18 C          -4.0326    1.1628   -0.7068 C.ar    1  UNL1        0.0425
     19 N          -5.3898    0.9319   -0.8293 N.ar    1  UNL1       -0.2551
     20 C          -5.6179   -0.3536   -0.6852 C.ar    1  UNL1        0.0652
     21 S          -4.2490   -1.3420   -0.3978 S.2     1  UNL1       -0.0754
     22 H          -0.5871    1.3432    3.7404 H       1  UNL1        0.0350
     23 H          -0.4275    2.8470    2.7844 H       1  UNL1        0.0350
     24 H          -2.6334    1.5219    2.0284 H       1  UNL1        0.0581
     25 H          -1.5771   -1.1746   -2.0564 H       1  UNL1        0.0630
     26 H           0.4747   -2.0204   -2.9429 H       1  UNL1        0.0624
     27 H           2.9222   -2.2664   -2.9070 H       1  UNL1        0.0624
     28 H           5.3612   -1.5381   -1.3946 H       1  UNL1        0.0638
     29 H           5.6441   -0.0710    0.8802 H       1  UNL1        0.0807
     30 H           3.3627    0.6364    1.5748 H       1  UNL1        0.1654
     31 H           1.7174    1.3302    2.4472 H       1  UNL1        0.0581
     32 H          -3.6639    2.1782   -0.7958 H       1  UNL1        0.0841
     33 H          -6.6142   -0.7723   -0.7416 H       1  UNL1        0.0907
@<TRIPOS>BOND
     1     1     2    1
     2     2     3    2
     3     3     4   ar
     4     4     5   ar
     5     5     6   ar
     6     6     7   ar
     7     7     8   ar
     8     8     9   ar
     9     9    10   ar
    10    10    11   ar
    11    11    12   ar
    12    12    13   ar
    13    13    14   ar
    14    14    15   ar
    15    15    16    2
    16     4    17    1
    17    17    18   ar
    18    18    19   ar
    19    19    20   ar
    20    20    21   ar
    21    16     1    1
    22    21    17   ar
    23    15     3   ar
    24    14     6   ar
    25    13     9   ar
    26     1    22    1
    27     1    23    1
    28     2    24    1
    29     5    25    1
    30     7    26    1
    31     8    27    1
    32    10    28    1
    33    11    29    1
    34    12    30    1
    35    16    31    1
    36    18    32    1
    37    20    33    1
