@<TRIPOS>MOLECULE
*****
 45 51 0 0 0
SMALL
GASTEIGER

@<TRIPOS>ATOM
      1 C           0.5541    1.6860    2.6407 C.3     1  UNL1       -0.0148
      2 C           1.7310    0.8973    2.1591 C.2     1  UNL1       -0.0719
      3 C           1.3307    0.0109    1.2324 C.ar    1  UNL1       -0.0130
      4 C           2.0962   -1.0675    0.6307 C.ar    1  UNL1       -0.0027
      5 C           1.3955   -1.9906   -0.0647 C.ar    1  UNL1       -0.0452
      6 C          -0.0730   -1.8955   -0.2847 C.ar    1  UNL1       -0.0161
      7 C          -0.7228   -2.9862   -0.8523 C.ar    1  UNL1       -0.0534
      8 C          -2.0887   -2.9221   -1.0928 C.ar    1  UNL1       -0.0534
      9 C          -2.8036   -1.7312   -0.9058 C.ar    1  UNL1       -0.0167
     10 C          -4.1710   -1.7407   -1.1936 C.ar    1  UNL1       -0.0534
     11 C          -4.9304   -0.5815   -1.1090 C.ar    1  UNL1       -0.0534
     12 C          -4.3209    0.6395   -0.8360 C.ar    1  UNL1       -0.0173
     13 C          -5.0956    1.8120   -0.8844 C.ar    1  UNL1       -0.0540
     14 C          -4.5108    3.0651   -0.7372 C.ar    1  UNL1       -0.0612
     15 C          -3.1398    3.1559   -0.5705 C.ar    1  UNL1       -0.0611
     16 C          -2.3695    1.9902   -0.5020 C.ar    1  UNL1       -0.0534
     17 C          -2.9288    0.6889   -0.5612 C.ar    1  UNL1       -0.0096
     18 C          -2.1622   -0.5465   -0.4524 C.ar    1  UNL1       -0.0019
     19 C          -0.8140   -0.7181    0.0311 C.ar    1  UNL1       -0.0022
     20 C          -0.1001    0.1820    0.9754 C.ar    1  UNL1       -0.0129
     21 C          -0.5704    1.0931    1.8467 C.2     1  UNL1       -0.0719
     22 C           3.5135   -1.2229    0.7305 C.ar    1  UNL1        0.0281
     23 S           4.2366   -2.6003    1.5062 S.2     1  UNL1       -0.0949
     24 C           5.8456   -2.0415    1.2487 C.ar    1  UNL1       -0.0094
     25 C           5.8334   -0.8408    0.6017 C.ar    1  UNL1        0.0269
     26 S           7.1796    0.2294    0.0684 S.2     1  UNL1       -0.0961
     27 C           5.9026    1.2774   -0.5370 C.ar    1  UNL1       -0.0231
     28 C           4.5903    0.8321   -0.3397 C.ar    1  UNL1       -0.0459
     29 C           4.5336   -0.4172    0.3339 C.ar    1  UNL1        0.0040
     30 H           0.3965    1.5376    3.7131 H       1  UNL1        0.0350
     31 H           0.6725    2.7524    2.4284 H       1  UNL1        0.0350
     32 H           2.7230    0.9793    2.5772 H       1  UNL1        0.0581
     33 H           1.8969   -2.8323   -0.5353 H       1  UNL1        0.0630
     34 H          -0.1873   -3.9058   -1.0735 H       1  UNL1        0.0624
     35 H          -2.5865   -3.8111   -1.4767 H       1  UNL1        0.0624
     36 H          -4.6686   -2.6616   -1.4924 H       1  UNL1        0.0624
     37 H          -5.9941   -0.6363   -1.3302 H       1  UNL1        0.0624
     38 H          -6.1669    1.7577   -1.0680 H       1  UNL1        0.0624
     39 H          -5.1191    3.9634   -0.7908 H       1  UNL1        0.0618
     40 H          -2.6585    4.1280   -0.5053 H       1  UNL1        0.0618
     41 H          -1.2917    2.1181   -0.4385 H       1  UNL1        0.0624
     42 H          -1.6042    1.3631    2.0001 H       1  UNL1        0.0581
     43 H           6.7121   -2.5990    1.5759 H       1  UNL1        0.0705
     44 H           6.2079    2.1942   -1.0228 H       1  UNL1        0.0694
     45 H           3.7271    1.3954   -0.6740 H       1  UNL1        0.0629
@<TRIPOS>BOND
     1     1     2    1
     2     2     3    2
     3     3     4   ar
     4     4     5   ar
     5     5     6   ar
     6     6     7   ar
     7     7     8   ar
     8     8     9   ar
     9     9    10   ar
    10    10    11   ar
    11    11    12   ar
    12    12    13   ar
    13    13    14   ar
    14    14    15   ar
    15    15    16   ar
    16    16    17   ar
    17    17    18   ar
    18    18    19   ar
    19    19    20   ar
    20    20    21    2
    21     4    22    1
    22    22    23   ar
    23    23    24   ar
    24    24    25   ar
    25    25    26   ar
    26    26    27   ar
    27    27    28   ar
    28    28    29   ar
    29    21     1    1
    30    29    22   ar
    31    20     3   ar
    32    29    25   ar
    33    19     6   ar
    34    18     9   ar
    35    17    12   ar
    36     1    30    1
    37     1    31    1
    38     2    32    1
    39     5    33    1
    40     7    34    1
    41     8    35    1
    42    10    36    1
    43    11    37    1
    44    13    38    1
    45    14    39    1
    46    15    40    1
    47    16    41    1
    48    21    42    1
    49    24    43    1
    50    27    44    1
    51    28    45    1
