@<TRIPOS>MOLECULE
*****
 47 54 0 0 0
SMALL
GASTEIGER

@<TRIPOS>ATOM
      1 C          -1.9513   -3.4378    0.7760 C.3     1  UNL1       -0.0148
      2 C          -2.8509   -2.2469    0.8118 C.2     1  UNL1       -0.0719
      3 C          -2.1263   -1.1265    0.6593 C.ar    1  UNL1       -0.0129
      4 C          -2.5872    0.2499    0.7472 C.ar    1  UNL1       -0.0013
      5 C          -1.6407    1.2124    0.7132 C.ar    1  UNL1       -0.0437
      6 C          -0.2008    0.9121    0.5340 C.ar    1  UNL1        0.0021
      7 C           0.7067    1.9528    0.5311 C.ar    1  UNL1        0.0360
      8 N           2.0282    1.8022    0.3142 N.ar    1  UNL1       -0.2536
      9 C           2.5286    0.5835    0.0240 C.ar    1  UNL1        0.0828
     10 C           1.6852   -0.5459   -0.0158 C.ar    1  UNL1        0.0274
     11 C           2.2984   -1.7344   -0.4270 C.ar    1  UNL1        0.0380
     12 N           3.6098   -1.9062   -0.7150 N.ar    1  UNL1       -0.2542
     13 C           4.4211   -0.8575   -0.6262 C.ar    1  UNL1        0.0736
     14 C           5.7869   -1.0993   -0.9265 C.ar    1  UNL1       -0.0351
     15 C           6.8239   -0.1425   -0.9142 C.ar    1  UNL1       -0.0515
     16 C           6.3421    1.1102   -0.5643 C.ar    1  UNL1       -0.0101
     17 C           7.1681    2.2040   -0.4860 C.ar    1  UNL1       -0.0166
     18 S           6.2943    3.6071   -0.0298 S.2     1  UNL1       -0.1039
     19 C           4.8125    2.7387    0.0610 C.ar    1  UNL1       -0.0159
     20 C           4.9646    1.4060   -0.2507 C.ar    1  UNL1        0.0003
     21 C           3.9145    0.4246   -0.2619 C.ar    1  UNL1        0.0345
     22 C           0.3021   -0.3912    0.3171 C.ar    1  UNL1        0.0016
     23 C          -0.7103   -1.4725    0.4716 C.ar    1  UNL1       -0.0128
     24 C          -0.6009   -2.8091    0.5865 C.2     1  UNL1       -0.0719
     25 C          -3.9435    0.6594    0.8714 C.ar    1  UNL1        0.0438
     26 S          -4.6144    1.4574    2.2637 S.2     1  UNL1       -0.0939
     27 C          -6.2137    1.5401    1.5837 C.ar    1  UNL1       -0.0145
     28 C          -6.1669    0.9702    0.3630 C.ar    1  UNL1        0.0073
     29 C          -6.9931    0.6661   -0.7461 C.ar    1  UNL1       -0.0361
     30 C          -6.1780    0.0286   -1.7064 C.ar    1  UNL1        0.0028
     31 N          -4.8613   -0.0910   -1.2657 N.ar    1  UNL1       -0.3598
     32 C          -4.9381    0.4890   -0.0304 C.ar    1  UNL1        0.0614
     33 H          -1.9961   -3.9930    1.7175 H       1  UNL1        0.0350
     34 H          -2.1997   -4.1018   -0.0569 H       1  UNL1        0.0350
     35 H          -3.9132   -2.3006    1.0008 H       1  UNL1        0.0581
     36 H          -1.9147    2.2629    0.7819 H       1  UNL1        0.0630
     37 H           0.3976    2.9803    0.7059 H       1  UNL1        0.0836
     38 H           1.7321   -2.6409   -0.5963 H       1  UNL1        0.0836
     39 H           6.0575   -2.1230   -1.1943 H       1  UNL1        0.0639
     40 H           7.8503   -0.3856   -1.1531 H       1  UNL1        0.0624
     41 H           8.2323    2.2670   -0.6678 H       1  UNL1        0.0699
     42 H           3.9207    3.2796    0.3422 H       1  UNL1        0.0700
     43 H           0.2919   -3.4102    0.6002 H       1  UNL1        0.0581
     44 H          -7.0359    1.9879    2.1226 H       1  UNL1        0.0700
     45 H          -8.0490    0.8726   -0.8610 H       1  UNL1        0.0639
     46 H          -6.4382   -0.3539   -2.6851 H       1  UNL1        0.0807
     47 H          -4.0452   -0.4946   -1.7106 H       1  UNL1        0.1654
@<TRIPOS>BOND
     1     1     2    1
     2     2     3    2
     3     3     4   ar
     4     4     5   ar
     5     5     6   ar
     6     6     7   ar
     7     7     8   ar
     8     8     9   ar
     9     9    10   ar
    10    10    11   ar
    11    11    12   ar
    12    12    13   ar
    13    13    14   ar
    14    14    15   ar
    15    15    16   ar
    16    16    17   ar
    17    17    18   ar
    18    18    19   ar
    19    19    20   ar
    20    20    21   ar
    21    10    22   ar
    22    22    23   ar
    23    23    24    2
    24     4    25    1
    25    25    26   ar
    26    26    27   ar
    27    27    28   ar
    28    28    29   ar
    29    29    30   ar
    30    30    31   ar
    31    31    32   ar
    32    24     1    1
    33    32    25   ar
    34    23     3   ar
    35    32    28   ar
    36    22     6   ar
    37    21     9   ar
    38    21    13   ar
    39    20    16   ar
    40     1    33    1
    41     1    34    1
    42     2    35    1
    43     5    36    1
    44     7    37    1
    45    11    38    1
    46    14    39    1
    47    15    40    1
    48    17    41    1
    49    19    42    1
    50    24    43    1
    51    27    44    1
    52    29    45    1
    53    30    46    1
    54    31    47    1
