@<TRIPOS>MOLECULE
*****
 45 52 0 0 0
SMALL
GASTEIGER

@<TRIPOS>ATOM
      1 C          -1.7333   -2.0726   -2.7854 C.3     1  UNL1       -0.0148
      2 C          -2.6484   -1.1215   -2.0833 C.2     1  UNL1       -0.0719
      3 C          -1.9475   -0.3727   -1.2160 C.ar    1  UNL1       -0.0129
      4 C          -2.4361    0.6801   -0.3349 C.ar    1  UNL1       -0.0013
      5 C          -1.5259    1.3168    0.4362 C.ar    1  UNL1       -0.0437
      6 C          -0.0818    0.9802    0.4140 C.ar    1  UNL1        0.0025
      7 C           0.7988    1.6710    1.2270 C.ar    1  UNL1        0.0361
      8 N           2.1211    1.4542    1.3050 N.ar    1  UNL1       -0.2532
      9 C           2.6254    0.4692    0.5107 C.ar    1  UNL1        0.0869
     10 C           1.8254   -0.2972   -0.3564 C.ar    1  UNL1        0.0470
     11 S           2.8018   -1.4511   -1.2023 S.2     1  UNL1       -0.0860
     12 C           4.2642   -0.9621   -0.4517 C.ar    1  UNL1        0.0226
     13 C           5.5716   -1.4895   -0.6594 C.ar    1  UNL1       -0.0467
     14 C           6.6911   -0.9897    0.0303 C.ar    1  UNL1       -0.0524
     15 C           6.3726    0.0427    0.9049 C.ar    1  UNL1       -0.0102
     16 C           7.3359    0.6611    1.6699 C.ar    1  UNL1       -0.0166
     17 S           6.6671    1.9048    2.6638 S.2     1  UNL1       -0.1039
     18 C           5.0722    1.6234    2.0735 C.ar    1  UNL1       -0.0159
     19 C           5.1015    0.6112    1.1574 C.ar    1  UNL1       -0.0006
     20 C           3.9812    0.0670    0.4271 C.ar    1  UNL1        0.0234
     21 C           0.4356   -0.0414   -0.4138 C.ar    1  UNL1        0.0068
     22 C          -0.5299   -0.7539   -1.2741 C.ar    1  UNL1       -0.0123
     23 C          -0.4017   -1.7406   -2.1784 C.2     1  UNL1       -0.0719
     24 C          -3.7966    1.0717   -0.2008 C.ar    1  UNL1        0.0438
     25 S          -4.4386    2.6056   -0.7083 S.2     1  UNL1       -0.0939
     26 C          -6.0600    2.2161   -0.2106 C.ar    1  UNL1       -0.0145
     27 C          -6.0398    0.9699    0.3033 C.ar    1  UNL1        0.0073
     28 C          -6.8932   -0.0001    0.8832 C.ar    1  UNL1       -0.0361
     29 C          -6.0951   -1.1244    1.1870 C.ar    1  UNL1        0.0028
     30 N          -4.7635   -0.9219    0.8292 N.ar    1  UNL1       -0.3598
     31 C          -4.8144    0.3419    0.3112 C.ar    1  UNL1        0.0614
     32 H          -2.0109   -3.1111   -2.5833 H       1  UNL1        0.0350
     33 H          -1.7296   -1.8943   -3.8646 H       1  UNL1        0.0350
     34 H          -3.7098   -1.0564   -2.2723 H       1  UNL1        0.0581
     35 H          -1.8319    2.1046    1.1209 H       1  UNL1        0.0630
     36 H           0.4464    2.4668    1.8802 H       1  UNL1        0.0836
     37 H           5.7108   -2.3018   -1.3711 H       1  UNL1        0.0629
     38 H           7.6870   -1.3865   -0.1236 H       1  UNL1        0.0624
     39 H           8.3984    0.4645    1.7126 H       1  UNL1        0.0699
     40 H           4.2433    2.2136    2.4375 H       1  UNL1        0.0700
     41 H           0.4969   -2.2515   -2.4789 H       1  UNL1        0.0581
     42 H          -6.8736    2.9157   -0.3339 H       1  UNL1        0.0700
     43 H          -7.9560    0.0803    1.0693 H       1  UNL1        0.0639
     44 H          -6.3773   -2.0672    1.6380 H       1  UNL1        0.0807
     45 H          -3.9531   -1.5249    0.9111 H       1  UNL1        0.1654
@<TRIPOS>BOND
     1     1     2    1
     2     2     3    2
     3     3     4   ar
     4     4     5   ar
     5     5     6   ar
     6     6     7   ar
     7     7     8   ar
     8     8     9   ar
     9     9    10   ar
    10    10    11   ar
    11    11    12   ar
    12    12    13   ar
    13    13    14   ar
    14    14    15   ar
    15    15    16   ar
    16    16    17   ar
    17    17    18   ar
    18    18    19   ar
    19    19    20   ar
    20    10    21   ar
    21    21    22   ar
    22    22    23    2
    23     4    24    1
    24    24    25   ar
    25    25    26   ar
    26    26    27   ar
    27    27    28   ar
    28    28    29   ar
    29    29    30   ar
    30    30    31   ar
    31    23     1    1
    32    31    24   ar
    33    22     3   ar
    34    31    27   ar
    35    21     6   ar
    36    20     9   ar
    37    20    12   ar
    38    19    15   ar
    39     1    32    1
    40     1    33    1
    41     2    34    1
    42     5    35    1
    43     7    36    1
    44    13    37    1
    45    14    38    1
    46    16    39    1
    47    18    40    1
    48    23    41    1
    49    26    42    1
    50    28    43    1
    51    29    44    1
    52    30    45    1
