@<TRIPOS>MOLECULE
*****
 40 45 0 0 0
SMALL
GASTEIGER

@<TRIPOS>ATOM
      1 C           0.8619    2.3473    2.1116 C.3     1  UNL1       -0.0148
      2 C           2.0106    1.5758    1.5418 C.2     1  UNL1       -0.0719
      3 C           1.5648    0.7351    0.5929 C.ar    1  UNL1       -0.0121
      4 C           2.3436   -0.0696   -0.3391 C.ar    1  UNL1        0.0063
      5 C           1.6710   -0.6039   -1.3828 C.ar    1  UNL1       -0.0428
      6 C           0.1988   -0.4858   -1.5356 C.ar    1  UNL1        0.0021
      7 C          -0.4165   -0.9960   -2.6678 C.ar    1  UNL1        0.0360
      8 N          -1.7509   -1.0041   -2.8832 N.ar    1  UNL1       -0.2543
      9 C          -2.5635   -0.5837   -1.9084 C.ar    1  UNL1        0.0722
     10 C          -3.9544   -0.6938   -2.1942 C.ar    1  UNL1       -0.0351
     11 C          -5.0200   -0.4006   -1.3151 C.ar    1  UNL1       -0.0506
     12 C          -4.5145   -0.0323   -0.0857 C.ar    1  UNL1        0.0001
     13 C          -5.2731    0.1975    1.0320 C.ar    1  UNL1        0.0094
     14 N          -4.3928    0.4203    2.0644 N.ar    1  UNL1       -0.3659
     15 C          -3.0943    0.3193    1.6080 C.ar    1  UNL1        0.0101
     16 C          -3.1334    0.1178    0.2478 C.ar    1  UNL1        0.0092
     17 C          -2.0446   -0.0821   -0.6624 C.ar    1  UNL1        0.0178
     18 C          -0.6278    0.0805   -0.5402 C.ar    1  UNL1        0.0008
     19 C           0.1052    0.8393    0.4959 C.ar    1  UNL1       -0.0128
     20 C          -0.2971    1.8221    1.3196 C.2     1  UNL1       -0.0719
     21 C           3.7450   -0.3180   -0.2694 C.ar    1  UNL1        0.0471
     22 C           4.7818   -0.2723   -1.1834 C.ar    1  UNL1       -0.0364
     23 C           5.9702   -0.6491   -0.5113 C.ar    1  UNL1       -0.0438
     24 C           5.6315   -0.9261    0.7933 C.ar    1  UNL1        0.0022
     25 N           4.2819   -0.7280    0.9298 N.ar    1  UNL1       -0.3606
     26 H           0.7369    2.1499    3.1800 H       1  UNL1        0.0350
     27 H           0.9929    3.4209    1.9470 H       1  UNL1        0.0350
     28 H           3.0430    1.7642    1.7946 H       1  UNL1        0.0581
     29 H           2.1872   -1.2000   -2.1309 H       1  UNL1        0.0631
     30 H           0.1645   -1.4281   -3.4788 H       1  UNL1        0.0836
     31 H          -4.2204   -1.0616   -3.1877 H       1  UNL1        0.0639
     32 H          -6.0610   -0.5238   -1.5737 H       1  UNL1        0.0625
     33 H          -6.3407    0.1863    1.2050 H       1  UNL1        0.0813
     34 H          -4.6567    0.5763    3.0287 H       1  UNL1        0.1648
     35 H          -2.2816    0.3747    2.3170 H       1  UNL1        0.0813
     36 H          -1.2879    2.2420    1.3853 H       1  UNL1        0.0581
     37 H           4.6932    0.0125   -2.2240 H       1  UNL1        0.0639
     38 H           6.9638   -0.7131   -0.9353 H       1  UNL1        0.0633
     39 H           6.2306   -1.2494    1.6337 H       1  UNL1        0.0807
     40 H           3.7528   -0.8695    1.7805 H       1  UNL1        0.1653
@<TRIPOS>BOND
     1     1     2    1
     2     2     3    2
     3     3     4   ar
     4     4     5   ar
     5     5     6   ar
     6     6     7   ar
     7     7     8   ar
     8     8     9   ar
     9     9    10   ar
    10    10    11   ar
    11    11    12   ar
    12    12    13   ar
    13    13    14   ar
    14    14    15   ar
    15    15    16   ar
    16    16    17   ar
    17    17    18   ar
    18    18    19   ar
    19    19    20    2
    20     4    21    1
    21    21    22   ar
    22    22    23   ar
    23    23    24   ar
    24    24    25   ar
    25    20     1    1
    26    25    21   ar
    27    19     3   ar
    28    18     6   ar
    29    17     9   ar
    30    16    12   ar
    31     1    26    1
    32     1    27    1
    33     2    28    1
    34     5    29    1
    35     7    30    1
    36    10    31    1
    37    11    32    1
    38    13    33    1
    39    14    34    1
    40    15    35    1
    41    20    36    1
    42    22    37    1
    43    23    38    1
    44    24    39    1
    45    25    40    1
