@<TRIPOS>MOLECULE
*****
 47 54 0 0 0
SMALL
GASTEIGER

@<TRIPOS>ATOM
      1 C           1.7526    3.3714   -0.7273 C.3     1  UNL1        0.0000
      2 C           2.7453    2.3323   -0.3126 C.2     1  UNL1        0.0000
      3 C           2.1034    1.2063    0.0387 C.ar    1  UNL1        0.0000
      4 C           2.6446    0.0044    0.6538 C.ar    1  UNL1        0.0000
      5 C           1.7454   -0.8900    1.1214 C.ar    1  UNL1        0.0000
      6 C           0.2833   -0.7369    0.9459 C.ar    1  UNL1        0.0000
      7 N          -0.4405   -1.6949    1.5631 N.ar    1  UNL1        0.0000
      8 C          -1.7806   -1.6565    1.3929 C.ar    1  UNL1        0.0000
      9 C          -2.4808   -0.7800    0.5565 C.ar    1  UNL1        0.0000
     10 C          -3.9200   -0.8605    0.4005 C.ar    1  UNL1        0.0000
     11 SI         -5.1793   -1.9968    1.2850 Si      1  UNL1        0.0000
     12 C          -6.5630   -1.2323    0.2690 C.2     1  UNL1        0.0000
     13 C          -6.1319   -0.2869   -0.5848 C.2     1  UNL1        0.0000
     14 C          -4.6909   -0.0807   -0.5108 C.ar    1  UNL1        0.0000
     15 C          -3.8946    0.7449   -1.2812 C.ar    1  UNL1        0.0000
     16 C          -4.2981    1.5238   -2.3365 C.ar    1  UNL1        0.0000
     17 N          -3.1613    2.0670   -2.8852 N.ar    1  UNL1        0.0000
     18 C          -2.0495    1.6302   -2.1968 C.ar    1  UNL1        0.0000
     19 C          -2.4722    0.8720   -1.1289 C.ar    1  UNL1        0.0000
     20 C          -1.6683    0.1830   -0.1534 C.ar    1  UNL1        0.0000
     21 C          -0.2753    0.2881    0.1557 C.ar    1  UNL1        0.0000
     22 C           0.6640    1.3754   -0.1913 C.ar    1  UNL1        0.0000
     23 C           0.4490    2.6519   -0.5538 C.2     1  UNL1        0.0000
     24 C           4.0754   -0.2502    0.8702 C.ar    1  UNL1        0.0000
     25 N           4.8375    0.6809    1.5326 N.ar    1  UNL1        0.0000
     26 C           6.1730    0.4784    1.7551 C.ar    1  UNL1        0.0000
     27 C           6.9348   -0.6188    1.3684 C.ar    1  UNL1        0.0000
     28 C           6.1980   -1.5957    0.6733 C.ar    1  UNL1        0.0000
     29 N           6.6982   -2.7433    0.1882 N.ar    1  UNL1        0.0000
     30 S           5.4362   -3.5348   -0.5438 S.2     1  UNL1        0.0000
     31 N           4.2025   -2.4599   -0.2803 N.ar    1  UNL1        0.0000
     32 C           4.7247   -1.4250    0.4050 C.ar    1  UNL1        0.0000
     33 H           1.8065    4.2468   -0.0735 H       1  UNL1        0.0000
     34 H           1.9029    3.6767   -1.7667 H       1  UNL1        0.0000
     35 H           3.8055    2.5154   -0.2233 H       1  UNL1        0.0000
     36 H           2.0479   -1.7957    1.6389 H       1  UNL1        0.0000
     37 H          -2.2892   -2.4297    1.9623 H       1  UNL1        0.0000
     38 H          -5.2919   -1.6809    2.7300 H       1  UNL1        0.0000
     39 H          -4.9558   -3.4274    0.9617 H       1  UNL1        0.0000
     40 H          -7.5839   -1.5588    0.3951 H       1  UNL1        0.0000
     41 H          -6.7643    0.2709   -1.2605 H       1  UNL1        0.0000
     42 H          -5.2673    1.7105   -2.7779 H       1  UNL1        0.0000
     43 H          -3.1372    2.6501   -3.7117 H       1  UNL1        0.0000
     44 H          -1.0681    1.8882   -2.5667 H       1  UNL1        0.0000
     45 H          -0.5069    3.1360   -0.6731 H       1  UNL1        0.0000
     46 H           6.6501    1.2938    2.2991 H       1  UNL1        0.0000
     47 H           7.9904   -0.7132    1.5776 H       1  UNL1        0.0000
@<TRIPOS>BOND
     1     1     2    1
     2     2     3    2
     3     3     4   ar
     4     4     5   ar
     5     5     6   ar
     6     6     7   ar
     7     7     8   ar
     8     8     9   ar
     9     9    10   ar
    10    10    11    1
    11    11    12    1
    12    12    13    2
    13    13    14    1
    14    14    15   ar
    15    15    16   ar
    16    16    17   ar
    17    17    18   ar
    18    18    19   ar
    19    19    20   ar
    20    20    21   ar
    21    21    22   ar
    22    22    23    2
    23     4    24    1
    24    24    25   ar
    25    25    26   ar
    26    26    27   ar
    27    27    28   ar
    28    28    29   ar
    29    29    30   ar
    30    30    31   ar
    31    31    32   ar
    32    23     1    1
    33    32    24   ar
    34    22     3   ar
    35    32    28   ar
    36    21     6   ar
    37    20     9   ar
    38    14    10   ar
    39    19    15   ar
    40     1    33    1
    41     1    34    1
    42     2    35    1
    43     5    36    1
    44     8    37    1
    45    11    38    1
    46    11    39    1
    47    12    40    1
    48    13    41    1
    49    16    42    1
    50    17    43    1
    51    18    44    1
    52    23    45    1
    53    26    46    1
    54    27    47    1
