@<TRIPOS>MOLECULE
*****
 45 51 0 0 0
SMALL
GASTEIGER

@<TRIPOS>ATOM
      1 C          -1.8999   -3.1221    1.0599 C.3     1  UNL1       -0.0148
      2 C          -2.9103   -2.0894    0.6737 C.2     1  UNL1       -0.0719
      3 C          -2.2884   -0.9569    0.3049 C.ar    1  UNL1       -0.0137
      4 C          -2.8796    0.3504    0.0288 C.ar    1  UNL1       -0.0121
      5 C          -2.0109    1.3863   -0.0108 C.ar    1  UNL1       -0.0277
      6 C          -0.5417    1.2319    0.0891 C.ar    1  UNL1        0.0727
      7 N           0.1340    2.3997    0.0807 N.ar    1  UNL1       -0.2542
      8 C           1.4882    2.3323    0.0827 C.ar    1  UNL1        0.0380
      9 C           2.2573    1.1728   -0.0068 C.ar    1  UNL1        0.0275
     10 C           3.7001    1.2991   -0.0534 C.ar    1  UNL1        0.0808
     11 N           4.2839    2.5111    0.0820 N.ar    1  UNL1       -0.2543
     12 C           5.6351    2.6261    0.0403 C.ar    1  UNL1        0.0283
     13 C           6.5024    1.5678   -0.1425 C.ar    1  UNL1       -0.0430
     14 C           5.9527    0.3082   -0.2966 C.ar    1  UNL1       -0.0504
     15 C           4.5479    0.1722   -0.2498 C.ar    1  UNL1        0.0118
     16 C           3.8135   -1.0125   -0.4268 C.ar    1  UNL1        0.0296
     17 C           4.3020   -2.2525   -0.7481 C.ar    1  UNL1        0.1000
     18 O           3.2630   -3.1103   -0.9536 O.2     1  UNL1       -0.4698
     19 C           2.1102   -2.4064   -0.7522 C.ar    1  UNL1        0.1000
     20 C           2.3941   -1.1241   -0.3503 C.ar    1  UNL1        0.0289
     21 C           1.4964   -0.0565   -0.0658 C.ar    1  UNL1        0.0061
     22 C           0.0780   -0.0312    0.1117 C.ar    1  UNL1        0.0163
     23 C          -0.8366   -1.1585    0.3747 C.ar    1  UNL1       -0.0115
     24 C          -0.6075   -2.3830    0.8802 C.2     1  UNL1       -0.0719
     25 C          -4.2998    0.6032   -0.1357 C.2     1  UNL1       -0.0359
     26 C          -5.1711   -0.1133   -0.8675 C.2     1  UNL1       -0.0580
     27 C          -6.4878    0.4593   -0.7590 C.2     1  UNL1       -0.0651
     28 C          -6.4405    1.5357    0.0374 C.2     1  UNL1       -0.0797
     29 C          -5.0322    1.7519    0.5165 C.3     1  UNL1       -0.0086
     30 H          -2.0328   -3.4278    2.1019 H       1  UNL1        0.0350
     31 H          -1.9520   -3.9987    0.4080 H       1  UNL1        0.0350
     32 H          -3.9759   -2.2285    0.7751 H       1  UNL1        0.0581
     33 H          -2.3409    2.4058   -0.1832 H       1  UNL1        0.0645
     34 H           1.9622    3.3130    0.1251 H       1  UNL1        0.0836
     35 H           6.0106    3.6390    0.1627 H       1  UNL1        0.0830
     36 H           7.5745    1.7243   -0.1693 H       1  UNL1        0.0633
     37 H           6.5982   -0.5501   -0.4525 H       1  UNL1        0.0625
     38 H           5.2852   -2.6714   -0.9091 H       1  UNL1        0.1036
     39 H           1.2087   -2.9624   -0.9634 H       1  UNL1        0.1036
     40 H           0.3409   -2.7938    1.1872 H       1  UNL1        0.0581
     41 H          -4.9458   -0.9877   -1.4596 H       1  UNL1        0.0620
     42 H          -7.3638    0.0654   -1.2514 H       1  UNL1        0.0615
     43 H          -7.2782    2.1642    0.2987 H       1  UNL1        0.0575
     44 H          -4.9798    1.6923    1.6082 H       1  UNL1        0.0356
     45 H          -4.6634    2.7249    0.1781 H       1  UNL1        0.0356
@<TRIPOS>BOND
     1     1     2    1
     2     2     3    2
     3     3     4   ar
     4     4     5   ar
     5     5     6   ar
     6     6     7   ar
     7     7     8   ar
     8     8     9   ar
     9     9    10   ar
    10    10    11   ar
    11    11    12   ar
    12    12    13   ar
    13    13    14   ar
    14    14    15   ar
    15    15    16   ar
    16    16    17   ar
    17    17    18   ar
    18    18    19   ar
    19    19    20   ar
    20    20    21   ar
    21    21    22   ar
    22    22    23   ar
    23    23    24    2
    24     4    25    1
    25    25    26    2
    26    26    27    1
    27    27    28    2
    28    28    29    1
    29    24     1    1
    30    29    25    1
    31    23     3   ar
    32    22     6   ar
    33    21     9   ar
    34    15    10   ar
    35    20    16   ar
    36     1    30    1
    37     1    31    1
    38     2    32    1
    39     5    33    1
    40     8    34    1
    41    12    35    1
    42    13    36    1
    43    14    37    1
    44    17    38    1
    45    19    39    1
    46    24    40    1
    47    26    41    1
    48    27    42    1
    49    28    43    1
    50    29    44    1
    51    29    45    1
