@<TRIPOS>MOLECULE
*****
 43 49 0 0 0
SMALL
GASTEIGER

@<TRIPOS>ATOM
      1 C          -0.7096    2.3313   -3.0113 C.3     1  UNL1       -0.0148
      2 C          -1.8372    1.9382   -2.1073 C.2     1  UNL1       -0.0719
      3 C          -1.3662    1.2160   -1.0773 C.ar    1  UNL1       -0.0128
      4 C          -2.0953    0.6216    0.0342 C.ar    1  UNL1       -0.0012
      5 C          -1.3752   -0.1009    0.9210 C.ar    1  UNL1       -0.0268
      6 C           0.0881   -0.2878    0.8153 C.ar    1  UNL1        0.0742
      7 N           0.6175   -1.0369    1.8034 N.ar    1  UNL1       -0.2542
      8 C           1.9508   -1.2332    1.7610 C.ar    1  UNL1        0.0395
      9 C           2.8016   -0.7223    0.7811 C.ar    1  UNL1        0.0450
     10 C           4.1834   -0.9752    0.8128 C.ar    1  UNL1        0.0830
     11 N           4.7477   -1.7235    1.7928 N.ar    1  UNL1       -0.2542
     12 C           6.0835   -1.9357    1.7760 C.ar    1  UNL1        0.0283
     13 C           6.9274   -1.4316    0.8086 C.ar    1  UNL1       -0.0430
     14 C           6.3643   -0.6646   -0.2002 C.ar    1  UNL1       -0.0497
     15 C           4.9793   -0.4308   -0.2032 C.ar    1  UNL1        0.0191
     16 C           4.3545    0.3258   -1.1811 C.ar    1  UNL1        0.0375
     17 N           3.0290    0.5693   -1.2141 N.ar    1  UNL1       -0.2535
     18 C           2.2356    0.0577   -0.2469 C.ar    1  UNL1        0.0842
     19 C           0.8485    0.2780   -0.2284 C.ar    1  UNL1        0.0338
     20 C           0.0836    1.0614   -1.2227 C.ar    1  UNL1       -0.0100
     21 C           0.4733    1.7059   -2.3360 C.2     1  UNL1       -0.0718
     22 C          -3.4989    0.7280    0.2692 C.ar    1  UNL1        0.0291
     23 S          -4.2579    2.2731    0.6046 S.2     1  UNL1       -0.0939
     24 C          -5.8466    1.5948    0.7809 C.ar    1  UNL1        0.0002
     25 C          -5.7498    0.2647    0.5927 C.ar    1  UNL1        0.0542
     26 N          -6.7622   -0.6479    0.6475 N.ar    1  UNL1       -0.3602
     27 C          -6.0746   -1.8306    0.3798 C.ar    1  UNL1        0.0028
     28 C          -4.6972   -1.5966    0.1761 C.ar    1  UNL1       -0.0356
     29 C          -4.4845   -0.2005    0.3193 C.ar    1  UNL1        0.0144
     30 H          -0.8499    1.9246   -4.0169 H       1  UNL1        0.0350
     31 H          -0.6055    3.4190   -3.0637 H       1  UNL1        0.0350
     32 H          -2.8683    2.2053   -2.2818 H       1  UNL1        0.0581
     33 H          -1.8388   -0.5780    1.7801 H       1  UNL1        0.0645
     34 H           2.3371   -1.8421    2.5768 H       1  UNL1        0.0837
     35 H           6.4647   -2.5437    2.5920 H       1  UNL1        0.0830
     36 H           7.9926   -1.6304    0.8396 H       1  UNL1        0.0633
     37 H           7.0014   -0.2519   -0.9787 H       1  UNL1        0.0625
     38 H           4.9149    0.7759   -1.9966 H       1  UNL1        0.0836
     39 H           1.4790    1.7746   -2.7207 H       1  UNL1        0.0581
     40 H          -6.7136    2.1991    1.0061 H       1  UNL1        0.0714
     41 H          -7.7431   -0.4826    0.8361 H       1  UNL1        0.1653
     42 H          -6.6251   -2.7623    0.3541 H       1  UNL1        0.0807
     43 H          -3.9583   -2.3551   -0.0470 H       1  UNL1        0.0639
@<TRIPOS>BOND
     1     1     2    1
     2     2     3    2
     3     3     4   ar
     4     4     5   ar
     5     5     6   ar
     6     6     7   ar
     7     7     8   ar
     8     8     9   ar
     9     9    10   ar
    10    10    11   ar
    11    11    12   ar
    12    12    13   ar
    13    13    14   ar
    14    14    15   ar
    15    15    16   ar
    16    16    17   ar
    17    17    18   ar
    18    18    19   ar
    19    19    20   ar
    20    20    21    2
    21     4    22    1
    22    22    23   ar
    23    23    24   ar
    24    24    25   ar
    25    25    26   ar
    26    26    27   ar
    27    27    28   ar
    28    28    29   ar
    29    21     1    1
    30    29    22   ar
    31    20     3   ar
    32    29    25   ar
    33    19     6   ar
    34    18     9   ar
    35    15    10   ar
    36     1    30    1
    37     1    31    1
    38     2    32    1
    39     5    33    1
    40     8    34    1
    41    12    35    1
    42    13    36    1
    43    14    37    1
    44    16    38    1
    45    21    39    1
    46    24    40    1
    47    26    41    1
    48    27    42    1
    49    28    43    1
