@<TRIPOS>MOLECULE
*****
 46 53 0 0 0
SMALL
GASTEIGER

@<TRIPOS>ATOM
      1 C           1.4252   -4.0913   -0.8533 C.3     1  UNL1       -0.0148
      2 C           2.3670   -3.0365   -0.3406 C.2     1  UNL1       -0.0719
      3 C           1.6844   -1.9160   -0.0515 C.ar    1  UNL1       -0.0127
      4 C           2.1677   -0.6249    0.4705 C.ar    1  UNL1        0.0002
      5 C           1.2631    0.3742    0.6538 C.ar    1  UNL1       -0.0099
      6 C          -0.1169    0.1326    0.3445 C.ar    1  UNL1        0.1389
      7 O          -1.1377    1.0499    0.4820 O.2     1  UNL1       -0.4526
      8 C          -2.2595    0.3939    0.0781 C.ar    1  UNL1        0.1620
      9 C          -1.9860   -0.8819   -0.3037 C.ar    1  UNL1        0.0945
     10 N          -3.1681   -1.4842   -0.7005 N.ar    1  UNL1       -0.3511
     11 C          -4.2028   -0.5679   -0.5656 C.ar    1  UNL1        0.0512
     12 C          -5.5971   -0.6391   -0.8203 C.ar    1  UNL1       -0.0370
     13 C          -6.4306    0.4889   -0.5809 C.ar    1  UNL1       -0.0506
     14 C          -5.7429    1.6033   -0.0940 C.ar    1  UNL1        0.0002
     15 C          -6.2927    2.8228    0.2238 C.ar    1  UNL1        0.0094
     16 N          -5.2641    3.6439    0.6698 N.ar    1  UNL1       -0.3659
     17 C          -4.0577    2.9696    0.6432 C.ar    1  UNL1        0.0102
     18 C          -4.3721    1.7326    0.1763 C.ar    1  UNL1        0.0121
     19 C          -3.6117    0.5841   -0.0821 C.ar    1  UNL1        0.0517
     20 C          -0.6121   -1.0746   -0.1418 C.ar    1  UNL1        0.0516
     21 C           0.2688   -2.1493   -0.3616 C.ar    1  UNL1       -0.0084
     22 C           0.0942   -3.3930   -0.8216 C.2     1  UNL1       -0.0718
     23 C           3.5278   -0.3303    0.7944 C.ar    1  UNL1        0.0274
     24 S           4.3005   -1.0801    2.1639 S.2     1  UNL1       -0.0958
     25 C           5.7976   -0.2584    1.9025 C.ar    1  UNL1       -0.0197
     26 C           5.7081    0.5588    0.8109 C.ar    1  UNL1       -0.0289
     27 C           6.5921    1.5031    0.0703 C.3     1  UNL1       -0.0081
     28 C           5.6388    1.9700   -1.0340 C.2     1  UNL1       -0.0791
     29 C           4.4270    1.3799   -0.9200 C.2     1  UNL1       -0.0568
     30 C           4.4326    0.5091    0.2012 C.ar    1  UNL1       -0.0070
     31 H           1.6878   -4.3896   -1.8725 H       1  UNL1        0.0350
     32 H           1.4248   -4.9688   -0.2001 H       1  UNL1        0.0350
     33 H           3.4314   -3.1796   -0.2293 H       1  UNL1        0.0581
     34 H           1.5378    1.3517    1.0351 H       1  UNL1        0.0661
     35 H          -3.2317   -2.4381   -1.0290 H       1  UNL1        0.1660
     36 H          -6.0381   -1.5571   -1.2002 H       1  UNL1        0.0638
     37 H          -7.4968    0.4663   -0.7648 H       1  UNL1        0.0625
     38 H          -7.3063    3.1968    0.1817 H       1  UNL1        0.0813
     39 H          -5.3824    4.6016    0.9724 H       1  UNL1        0.1648
     40 H          -3.1330    3.4361    0.9535 H       1  UNL1        0.0813
     41 H          -0.8372   -3.8387   -1.1302 H       1  UNL1        0.0581
     42 H           6.6374   -0.4265    2.5619 H       1  UNL1        0.0696
     43 H           7.4626    0.9969   -0.3559 H       1  UNL1        0.0356
     44 H           6.9045    2.3441    0.6955 H       1  UNL1        0.0356
     45 H           5.9156    2.6795   -1.7995 H       1  UNL1        0.0575
     46 H           3.5807    1.5367   -1.5744 H       1  UNL1        0.0621
@<TRIPOS>BOND
     1     1     2    1
     2     2     3    2
     3     3     4   ar
     4     4     5   ar
     5     5     6   ar
     6     6     7   ar
     7     7     8   ar
     8     8     9   ar
     9     9    10   ar
    10    10    11   ar
    11    11    12   ar
    12    12    13   ar
    13    13    14   ar
    14    14    15   ar
    15    15    16   ar
    16    16    17   ar
    17    17    18   ar
    18    18    19   ar
    19     9    20   ar
    20    20    21   ar
    21    21    22    2
    22     4    23    1
    23    23    24   ar
    24    24    25   ar
    25    25    26   ar
    26    26    27    1
    27    27    28    1
    28    28    29    2
    29    29    30    1
    30    22     1    1
    31    30    23   ar
    32    21     3   ar
    33    30    26   ar
    34    20     6   ar
    35    19     8   ar
    36    19    11   ar
    37    18    14   ar
    38     1    31    1
    39     1    32    1
    40     2    33    1
    41     5    34    1
    42    10    35    1
    43    12    36    1
    44    13    37    1
    45    15    38    1
    46    16    39    1
    47    17    40    1
    48    22    41    1
    49    25    42    1
    50    27    43    1
    51    27    44    1
    52    28    45    1
    53    29    46    1
