@<TRIPOS>MOLECULE
*****
 43 49 0 0 0
SMALL
GASTEIGER

@<TRIPOS>ATOM
      1 SI          2.6357   -1.6069    0.7797 Si      1  UNL1        0.0000
      2 C           3.8704   -0.3266    0.1293 C.2     1  UNL1        0.0000
      3 C           3.2691    0.7462   -0.4293 C.2     1  UNL1        0.0000
      4 C           1.8075    0.6548   -0.3964 C.ar    1  UNL1        0.0000
      5 C           1.2590   -0.5064    0.1994 C.ar    1  UNL1        0.0000
      6 C          -0.1290   -0.7128    0.2815 C.ar    1  UNL1        0.0000
      7 N          -0.8764   -1.7733    0.7291 N.ar    1  UNL1        0.0000
      8 C          -2.2275   -1.5172    0.6117 C.ar    1  UNL1        0.0000
      9 C          -3.2972   -2.3749    0.8830 C.ar    1  UNL1        0.0000
     10 C          -4.5890   -1.8703    0.7510 C.ar    1  UNL1        0.0000
     11 C          -4.8165   -0.5256    0.4531 C.ar    1  UNL1        0.0000
     12 C          -6.1287   -0.0257    0.4278 C.ar    1  UNL1        0.0000
     13 C          -6.3755    1.3325    0.2326 C.ar    1  UNL1        0.0000
     14 C          -5.3114    2.2131    0.0884 C.ar    1  UNL1        0.0000
     15 C          -4.0006    1.7303    0.0944 C.ar    1  UNL1        0.0000
     16 C          -3.7226    0.3513    0.2161 C.ar    1  UNL1        0.0000
     17 C          -2.3903   -0.1898    0.1831 C.ar    1  UNL1        0.0000
     18 C          -1.0710    0.2142   -0.1600 C.ar    1  UNL1        0.0000
     19 C          -0.5555    1.3606   -0.8850 C.ar    1  UNL1        0.0000
     20 C          -1.2635    2.2465   -1.6442 C.ar    1  UNL1        0.0000
     21 S          -0.2027    3.4295   -2.3081 S.2     1  UNL1        0.0000
     22 C           1.1899    2.6535   -1.6527 C.ar    1  UNL1        0.0000
     23 C           0.8632    1.5208   -0.9392 C.ar    1  UNL1        0.0000
     24 C           5.2731   -0.5091    0.2338 C.ar    1  UNL1        0.0000
     25 C           6.0422   -1.6202   -0.0784 C.ar    1  UNL1        0.0000
     26 C           7.4325   -1.4332    0.1747 C.ar    1  UNL1        0.0000
     27 C           7.6977   -0.1817    0.6767 C.ar    1  UNL1        0.0000
     28 S           6.2819    0.7573    0.8372 S.2     1  UNL1        0.0000
     29 H           2.6566   -1.7594    2.2574 H       1  UNL1        0.0000
     30 H           2.6831   -2.8935    0.0354 H       1  UNL1        0.0000
     31 H           3.7837    1.5894   -0.8679 H       1  UNL1        0.0000
     32 H          -0.4984   -2.6447    1.0698 H       1  UNL1        0.0000
     33 H          -3.1367   -3.4059    1.1828 H       1  UNL1        0.0000
     34 H          -5.4266   -2.5381    0.9442 H       1  UNL1        0.0000
     35 H          -6.9749   -0.6913    0.5849 H       1  UNL1        0.0000
     36 H          -7.3964    1.7050    0.2282 H       1  UNL1        0.0000
     37 H          -5.4956    3.2795   -0.0123 H       1  UNL1        0.0000
     38 H          -3.1961    2.4565    0.0652 H       1  UNL1        0.0000
     39 H          -2.3123    2.2806   -1.8923 H       1  UNL1        0.0000
     40 H           2.1651    3.0679   -1.8656 H       1  UNL1        0.0000
     41 H           5.6293   -2.5352   -0.4866 H       1  UNL1        0.0000
     42 H           8.1971   -2.1785   -0.0062 H       1  UNL1        0.0000
     43 H           8.6574    0.2309    0.9560 H       1  UNL1        0.0000
@<TRIPOS>BOND
     1     1     2    1
     2     2     3    2
     3     3     4    1
     4     4     5   ar
     5     5     6   ar
     6     6     7   ar
     7     7     8   ar
     8     8     9   ar
     9     9    10   ar
    10    10    11   ar
    11    11    12   ar
    12    12    13   ar
    13    13    14   ar
    14    14    15   ar
    15    15    16   ar
    16    16    17   ar
    17    17    18   ar
    18    18    19   ar
    19    19    20   ar
    20    20    21   ar
    21    21    22   ar
    22    22    23   ar
    23     2    24    1
    24    24    25   ar
    25    25    26   ar
    26    26    27   ar
    27    27    28   ar
    28     5     1    1
    29    18     6   ar
    30    23    19   ar
    31    28    24   ar
    32    23     4   ar
    33    17     8   ar
    34    16    11   ar
    35     1    29    1
    36     1    30    1
    37     3    31    1
    38     7    32    1
    39     9    33    1
    40    10    34    1
    41    12    35    1
    42    13    36    1
    43    14    37    1
    44    15    38    1
    45    20    39    1
    46    22    40    1
    47    25    41    1
    48    26    42    1
    49    27    43    1
