@<TRIPOS>MOLECULE
*****
 43 49 0 0 0
SMALL
GASTEIGER

@<TRIPOS>ATOM
      1 SI          1.7972   -3.0467    2.2653 Si      1  UNL1        0.0000
      2 C           2.9743   -1.9816    1.3111 C.2     1  UNL1        0.0000
      3 C           2.3412   -0.9813    0.6609 C.ar    1  UNL1        0.0000
      4 C           3.0402    0.1089   -0.0255 C.ar    1  UNL1        0.0000
      5 C           2.3007    1.1420   -0.4832 C.ar    1  UNL1        0.0000
      6 C           0.8388    1.1561   -0.3727 C.ar    1  UNL1        0.0000
      7 C           0.0675    2.2305   -0.8131 C.ar    1  UNL1        0.0000
      8 C           0.4834    3.4476   -1.2927 C.ar    1  UNL1        0.0000
      9 O          -0.6000    4.2175   -1.6078 O.2     1  UNL1        0.0000
     10 C          -1.7162    3.4801   -1.3340 C.ar    1  UNL1        0.0000
     11 C          -1.3535    2.2515   -0.8414 C.ar    1  UNL1        0.0000
     12 C          -2.1901    1.1756   -0.4793 C.ar    1  UNL1        0.0000
     13 C          -3.6039    1.1991   -0.5785 C.ar    1  UNL1        0.0000
     14 C          -4.3479    0.0549   -0.2845 C.ar    1  UNL1        0.0000
     15 C          -5.7457    0.0339   -0.3739 C.ar    1  UNL1        0.0000
     16 C          -6.4127   -1.1483   -0.0969 C.ar    1  UNL1        0.0000
     17 N          -5.7941   -2.2933    0.2533 N.ar    1  UNL1        0.0000
     18 C          -4.4434   -2.2495    0.3327 C.ar    1  UNL1        0.0000
     19 C          -3.6666   -1.1139    0.0852 C.ar    1  UNL1        0.0000
     20 C          -2.2540   -1.1124    0.1874 C.ar    1  UNL1        0.0000
     21 C          -1.4456    0.0297   -0.0330 C.ar    1  UNL1        0.0000
     22 C           0.0312    0.0676    0.1145 C.ar    1  UNL1        0.0000
     23 C           0.8529   -0.9951    0.7946 C.ar    1  UNL1        0.0000
     24 C           0.4194   -1.9284    1.6708 C.2     1  UNL1        0.0000
     25 C           4.4611    0.1584   -0.2377 C.ar    1  UNL1        0.0000
     26 N           5.1749   -0.7028   -0.9424 N.ar    1  UNL1        0.0000
     27 C           6.5128   -0.3670   -0.9154 C.ar    1  UNL1        0.0000
     28 C           6.8311    0.7470   -0.1746 C.ar    1  UNL1        0.0000
     29 S           5.4123    1.4044    0.5188 S.2     1  UNL1        0.0000
     30 H           1.9936   -2.9542    3.7317 H       1  UNL1        0.0000
     31 H           1.6718   -4.4186    1.7182 H       1  UNL1        0.0000
     32 H           4.0395   -2.1468    1.3690 H       1  UNL1        0.0000
     33 H           2.7721    1.9687   -1.0051 H       1  UNL1        0.0000
     34 H           1.4419    3.9169   -1.4634 H       1  UNL1        0.0000
     35 H          -2.6540    3.9706   -1.5526 H       1  UNL1        0.0000
     36 H          -4.1129    2.1030   -0.9028 H       1  UNL1        0.0000
     37 H          -6.3099    0.9157   -0.6582 H       1  UNL1        0.0000
     38 H          -7.4960   -1.2061   -0.1554 H       1  UNL1        0.0000
     39 H          -3.9836   -3.1928    0.6172 H       1  UNL1        0.0000
     40 H          -1.7835   -2.0688    0.3948 H       1  UNL1        0.0000
     41 H          -0.5681   -2.0837    2.0670 H       1  UNL1        0.0000
     42 H           7.2220   -0.9794   -1.4589 H       1  UNL1        0.0000
     43 H           7.8020    1.1906   -0.0093 H       1  UNL1        0.0000
@<TRIPOS>BOND
     1     1     2    1
     2     2     3    2
     3     3     4   ar
     4     4     5   ar
     5     5     6   ar
     6     6     7   ar
     7     7     8   ar
     8     8     9   ar
     9     9    10   ar
    10    10    11   ar
    11    11    12   ar
    12    12    13   ar
    13    13    14   ar
    14    14    15   ar
    15    15    16   ar
    16    16    17   ar
    17    17    18   ar
    18    18    19   ar
    19    19    20   ar
    20    20    21   ar
    21    21    22   ar
    22    22    23   ar
    23    23    24    2
    24     4    25    1
    25    25    26   ar
    26    26    27   ar
    27    27    28   ar
    28    28    29   ar
    29    24     1    1
    30    29    25   ar
    31    23     3   ar
    32    22     6   ar
    33    11     7   ar
    34    21    12   ar
    35    19    14   ar
    36     1    30    1
    37     1    31    1
    38     2    32    1
    39     5    33    1
    40     8    34    1
    41    10    35    1
    42    13    36    1
    43    15    37    1
    44    16    38    1
    45    18    39    1
    46    20    40    1
    47    24    41    1
    48    27    42    1
    49    28    43    1
