@<TRIPOS>MOLECULE
*****
 41 47 0 0 0
SMALL
GASTEIGER

@<TRIPOS>ATOM
      1 C          -0.4751   -2.4747    2.7676 C.3     1  UNL1        0.0000
      2 C          -1.5000   -1.9228    1.8167 C.2     1  UNL1        0.0000
      3 C          -0.8899   -1.2255    0.8438 C.ar    1  UNL1        0.0000
      4 C          -1.4756   -0.5088   -0.2991 C.ar    1  UNL1        0.0000
      5 C          -0.6383    0.1439   -1.1463 C.ar    1  UNL1        0.0000
      6 C           0.7717    0.1007   -0.8979 C.ar    1  UNL1        0.0000
      7 O           1.7451    0.7126   -1.6697 O.2     1  UNL1        0.0000
      8 C           2.9306    0.4207   -1.0864 C.ar    1  UNL1        0.0000
      9 C           2.7440   -0.3607    0.0397 C.ar    1  UNL1        0.0000
     10 SI          4.4216   -0.7349    0.8099 Si      1  UNL1        0.0000
     11 C           5.2545    0.2746   -0.5663 C.ar    1  UNL1        0.0000
     12 C           6.4960    0.6957   -1.0239 C.ar    1  UNL1        0.0000
     13 C           6.2293    1.4455   -2.1639 C.ar    1  UNL1        0.0000
     14 N           4.8605    1.4754   -2.3882 N.ar    1  UNL1        0.0000
     15 C           4.2714    0.7556   -1.4037 C.ar    1  UNL1        0.0000
     16 C           1.3879   -0.5712    0.1728 C.ar    1  UNL1        0.0000
     17 C           0.5573   -1.2619    1.0861 C.ar    1  UNL1        0.0000
     18 C           0.8187   -1.9763    2.1872 C.2     1  UNL1        0.0000
     19 C          -2.8745   -0.4312   -0.5824 C.ar    1  UNL1        0.0000
     20 S          -3.6880   -1.7835   -1.3207 S.2     1  UNL1        0.0000
     21 C          -5.2173   -0.9855   -1.3440 C.ar    1  UNL1        0.0000
     22 C          -5.0880    0.2557   -0.8041 C.ar    1  UNL1        0.0000
     23 SI         -6.2280    1.7139   -0.4627 Si      1  UNL1        0.0000
     24 C          -4.7236    2.6419    0.2687 C.2     1  UNL1        0.0000
     25 C          -3.6039    1.8874    0.2133 C.2     1  UNL1        0.0000
     26 C          -3.7772    0.5870   -0.3678 C.ar    1  UNL1        0.0000
     27 H          -0.5031   -3.5682    2.7846 H       1  UNL1        0.0000
     28 H          -0.6277   -2.0857    3.7786 H       1  UNL1        0.0000
     29 H          -2.5641   -2.0761    1.9166 H       1  UNL1        0.0000
     30 H          -0.9920    0.6959   -2.0100 H       1  UNL1        0.0000
     31 H           4.5912   -0.1298    2.1570 H       1  UNL1        0.0000
     32 H           4.7748   -2.1780    0.7667 H       1  UNL1        0.0000
     33 H           7.4763    0.5010   -0.6089 H       1  UNL1        0.0000
     34 H           6.8948    1.9638   -2.8413 H       1  UNL1        0.0000
     35 H           4.3866    1.9470   -3.1478 H       1  UNL1        0.0000
     36 H           1.7895   -2.1741    2.6114 H       1  UNL1        0.0000
     37 H          -6.0905   -1.4802   -1.7470 H       1  UNL1        0.0000
     38 H          -6.7277    2.3909   -1.6852 H       1  UNL1        0.0000
     39 H          -7.2497    1.4513    0.5812 H       1  UNL1        0.0000
     40 H          -4.8256    3.6405    0.6618 H       1  UNL1        0.0000
     41 H          -2.6417    2.2281    0.5797 H       1  UNL1        0.0000
@<TRIPOS>BOND
     1     1     2    1
     2     2     3    2
     3     3     4   ar
     4     4     5   ar
     5     5     6   ar
     6     6     7   ar
     7     7     8   ar
     8     8     9   ar
     9     9    10    1
    10    10    11    1
    11    11    12   ar
    12    12    13   ar
    13    13    14   ar
    14    14    15   ar
    15     9    16   ar
    16    16    17   ar
    17    17    18    2
    18     4    19    1
    19    19    20   ar
    20    20    21   ar
    21    21    22   ar
    22    22    23    1
    23    23    24    1
    24    24    25    2
    25    25    26    1
    26    18     1    1
    27    26    19   ar
    28    17     3   ar
    29    26    22   ar
    30    16     6   ar
    31     8    15    1
    32    15    11   ar
    33     1    27    1
    34     1    28    1
    35     2    29    1
    36     5    30    1
    37    10    31    1
    38    10    32    1
    39    12    33    1
    40    13    34    1
    41    14    35    1
    42    18    36    1
    43    21    37    1
    44    23    38    1
    45    23    39    1
    46    24    40    1
    47    25    41    1
