@<TRIPOS>MOLECULE
*****
 47 54 0 0 0
SMALL
GASTEIGER

@<TRIPOS>ATOM
      1 C           3.4839   -3.3459    0.4577 C.3     1  UNL1       -0.0148
      2 C           4.0903   -1.9775    0.4236 C.2     1  UNL1       -0.0718
      3 C           3.1322   -1.0474    0.2675 C.ar    1  UNL1       -0.0103
      4 C           3.2535    0.4222    0.2600 C.ar    1  UNL1        0.0301
      5 C           2.1002    1.1372    0.2148 C.ar    1  UNL1       -0.0074
      6 C           0.8477    0.4548    0.1198 C.ar    1  UNL1        0.1376
      7 O          -0.3704    1.0832    0.0701 O.2     1  UNL1       -0.4541
      8 C          -1.3410    0.1300   -0.0803 C.ar    1  UNL1        0.1452
      9 C          -0.7114   -1.1070   -0.1371 C.ar    1  UNL1        0.0398
     10 C          -1.5689   -2.2218   -0.3772 C.ar    1  UNL1        0.0318
     11 C          -1.3290   -3.5417   -0.5960 C.ar    1  UNL1        0.1001
     12 O          -2.5345   -4.1674   -0.7893 O.2     1  UNL1       -0.4698
     13 C          -3.5130   -3.2119   -0.7118 C.ar    1  UNL1        0.1000
     14 C          -2.9580   -1.9752   -0.4748 C.ar    1  UNL1        0.0284
     15 C          -3.6244   -0.7532   -0.3776 C.ar    1  UNL1       -0.0030
     16 C          -5.0854   -0.5913   -0.4921 C.ar    1  UNL1       -0.0527
     17 C          -5.6438    0.6324   -0.4128 C.ar    1  UNL1       -0.0537
     18 C          -4.8042    1.7899   -0.2154 C.ar    1  UNL1       -0.0211
     19 C          -5.1669    3.0757   -0.1122 C.2     1  UNL1       -0.0725
     20 C          -3.9429    3.9229    0.0883 C.3     1  UNL1       -0.0148
     21 C          -2.8369    2.9062    0.0811 C.2     1  UNL1       -0.0718
     22 C          -3.3509    1.6786   -0.0960 C.ar    1  UNL1       -0.0105
     23 C          -2.7349    0.3477   -0.1798 C.ar    1  UNL1        0.0331
     24 C           0.6602   -0.9334    0.0515 C.ar    1  UNL1        0.0360
     25 C           1.8270   -1.7372    0.1746 C.ar    1  UNL1       -0.0098
     26 C           2.0200   -3.0546    0.3159 C.2     1  UNL1       -0.0718
     27 C           4.5330    1.1787    0.3050 C.ar    1  UNL1        0.1637
     28 N           5.6190    0.6024   -0.2180 N.ar    1  UNL1       -0.2160
     29 C           6.7248    1.3397   -0.1629 C.ar    1  UNL1        0.1200
     30 N           6.8287    2.5592    0.3559 N.ar    1  UNL1       -0.2241
     31 C           5.6868    3.0330    0.8440 C.ar    1  UNL1        0.1200
     32 N           4.5150    2.4034    0.8462 N.ar    1  UNL1       -0.2160
     33 H           3.8471   -3.9627   -0.3694 H       1  UNL1        0.0350
     34 H           3.6940   -3.8437    1.4090 H       1  UNL1        0.0350
     35 H           5.1474   -1.7976    0.5458 H       1  UNL1        0.0581
     36 H           2.0812    2.2222    0.2147 H       1  UNL1        0.0662
     37 H          -0.4717   -4.1875   -0.6774 H       1  UNL1        0.1036
     38 H          -4.5181   -3.5799   -0.8620 H       1  UNL1        0.1036
     39 H          -5.7070   -1.4661   -0.6398 H       1  UNL1        0.0624
     40 H          -6.7167    0.7671   -0.4947 H       1  UNL1        0.0624
     41 H          -6.1734    3.4609   -0.1621 H       1  UNL1        0.0581
     42 H          -3.9835    4.4535    1.0440 H       1  UNL1        0.0350
     43 H          -3.8229    4.6409   -0.7283 H       1  UNL1        0.0350
     44 H          -1.7939    3.1539    0.2030 H       1  UNL1        0.0581
     45 H           1.2738   -3.8236    0.3750 H       1  UNL1        0.0581
     46 H           7.6264    0.9044   -0.5804 H       1  UNL1        0.1048
     47 H           5.7120    4.0260    1.2798 H       1  UNL1        0.1048
@<TRIPOS>BOND
     1     1     2    1
     2     2     3    2
     3     3     4   ar
     4     4     5   ar
     5     5     6   ar
     6     6     7   ar
     7     7     8   ar
     8     8     9   ar
     9     9    10   ar
    10    10    11   ar
    11    11    12   ar
    12    12    13   ar
    13    13    14   ar
    14    14    15   ar
    15    15    16   ar
    16    16    17   ar
    17    17    18   ar
    18    18    19    2
    19    19    20    1
    20    20    21    1
    21    21    22    2
    22    22    23   ar
    23     9    24   ar
    24    24    25   ar
    25    25    26    2
    26     4    27    1
    27    27    28   ar
    28    28    29   ar
    29    29    30   ar
    30    30    31   ar
    31    31    32   ar
    32    26     1    1
    33    32    27   ar
    34    25     3   ar
    35    24     6   ar
    36    23     8   ar
    37    14    10   ar
    38    23    15   ar
    39    22    18   ar
    40     1    33    1
    41     1    34    1
    42     2    35    1
    43     5    36    1
    44    11    37    1
    45    13    38    1
    46    16    39    1
    47    17    40    1
    48    19    41    1
    49    20    42    1
    50    20    43    1
    51    21    44    1
    52    26    45    1
    53    29    46    1
    54    31    47    1
