@<TRIPOS>MOLECULE
*****
 46 53 0 0 0
SMALL
GASTEIGER

@<TRIPOS>ATOM
      1 C           3.9905   -3.0396   -0.4947 C.3     1  UNL1       -0.0148
      2 C           4.3854   -1.6193   -0.2299 C.2     1  UNL1       -0.0718
      3 C           3.2895   -0.8535   -0.0923 C.ar    1  UNL1       -0.0103
      4 C           3.2010    0.5933    0.1695 C.ar    1  UNL1        0.0281
      5 C           1.9591    1.1338    0.2480 C.ar    1  UNL1       -0.0075
      6 C           0.8142    0.2940    0.0739 C.ar    1  UNL1        0.1376
      7 O          -0.4813    0.7320    0.1306 O.2     1  UNL1       -0.4541
      8 C          -1.3250   -0.3300   -0.0753 C.ar    1  UNL1        0.1467
      9 C          -0.5286   -1.4449   -0.2634 C.ar    1  UNL1        0.0572
     10 C          -1.1766   -2.6916   -0.4997 C.ar    1  UNL1        0.1118
     11 N          -0.5341   -3.8304   -0.6946 N.ar    1  UNL1       -0.1900
     12 S          -1.7653   -4.9355   -0.9150 S.2     1  UNL1        0.1165
     13 N          -3.0939   -3.9378   -0.7585 N.ar    1  UNL1       -0.1901
     14 C          -2.6304   -2.6895   -0.5245 C.ar    1  UNL1        0.1084
     15 C          -3.4191   -1.5105   -0.3250 C.ar    1  UNL1        0.0144
     16 C          -4.8203   -1.5769   -0.3617 C.ar    1  UNL1       -0.0512
     17 C          -5.5773   -0.4270   -0.1669 C.ar    1  UNL1       -0.0534
     18 C          -4.9684    0.8121    0.0687 C.ar    1  UNL1       -0.0172
     19 C          -5.7835    1.9407    0.2592 C.ar    1  UNL1       -0.0540
     20 C          -5.2330    3.1962    0.4974 C.ar    1  UNL1       -0.0612
     21 C          -3.8562    3.3373    0.5481 C.ar    1  UNL1       -0.0611
     22 C          -3.0330    2.2225    0.3601 C.ar    1  UNL1       -0.0533
     23 C          -3.5511    0.9243    0.1144 C.ar    1  UNL1       -0.0066
     24 C          -2.7583   -0.2694   -0.0886 C.ar    1  UNL1        0.0349
     25 C           0.8208   -1.0824   -0.1751 C.ar    1  UNL1        0.0375
     26 C           2.0966   -1.7065   -0.2675 C.ar    1  UNL1       -0.0097
     27 C           2.4930   -2.9649   -0.4972 C.2     1  UNL1       -0.0718
     28 C           4.3275    1.4657    0.3682 C.ar    1  UNL1        0.1355
     29 C           4.4816    2.8238    0.0867 C.ar    1  UNL1       -0.0159
     30 C           5.7854    3.2146    0.4733 C.ar    1  UNL1       -0.0233
     31 C           6.3784    2.0855    0.9720 C.ar    1  UNL1        0.0926
     32 O           5.5242    1.0379    0.9121 O.2     1  UNL1       -0.4629
     33 H           4.3510   -3.7036    0.2963 H       1  UNL1        0.0350
     34 H           4.3692   -3.3799   -1.4630 H       1  UNL1        0.0350
     35 H           5.4100   -1.2860   -0.1630 H       1  UNL1        0.0581
     36 H           1.7810    2.1819    0.4578 H       1  UNL1        0.0662
     37 H          -5.3282   -2.5227   -0.5419 H       1  UNL1        0.0624
     38 H          -6.6624   -0.5106   -0.2012 H       1  UNL1        0.0624
     39 H          -6.8676    1.8499    0.2234 H       1  UNL1        0.0624
     40 H          -5.8784    4.0580    0.6428 H       1  UNL1        0.0618
     41 H          -3.4128    4.3121    0.7340 H       1  UNL1        0.0618
     42 H          -1.9634    2.3980    0.4122 H       1  UNL1        0.0624
     43 H           1.8709   -3.8260   -0.6682 H       1  UNL1        0.0581
     44 H           3.7309    3.4605   -0.3613 H       1  UNL1        0.0655
     45 H           6.2345    4.1943    0.3941 H       1  UNL1        0.0649
     46 H           7.3536    1.8703    1.3858 H       1  UNL1        0.1029
@<TRIPOS>BOND
     1     1     2    1
     2     2     3    2
     3     3     4   ar
     4     4     5   ar
     5     5     6   ar
     6     6     7   ar
     7     7     8   ar
     8     8     9   ar
     9     9    10   ar
    10    10    11   ar
    11    11    12   ar
    12    12    13   ar
    13    13    14   ar
    14    14    15   ar
    15    15    16   ar
    16    16    17   ar
    17    17    18   ar
    18    18    19   ar
    19    19    20   ar
    20    20    21   ar
    21    21    22   ar
    22    22    23   ar
    23    23    24   ar
    24     9    25   ar
    25    25    26   ar
    26    26    27    2
    27     4    28    1
    28    28    29   ar
    29    29    30   ar
    30    30    31   ar
    31    31    32   ar
    32    27     1    1
    33    32    28   ar
    34    26     3   ar
    35    25     6   ar
    36    24     8   ar
    37    14    10   ar
    38    24    15   ar
    39    23    18   ar
    40     1    33    1
    41     1    34    1
    42     2    35    1
    43     5    36    1
    44    16    37    1
    45    17    38    1
    46    19    39    1
    47    20    40    1
    48    21    41    1
    49    22    42    1
    50    27    43    1
    51    29    44    1
    52    30    45    1
    53    31    46    1
