@<TRIPOS>MOLECULE
*****
 47 54 0 0 0
SMALL
GASTEIGER

@<TRIPOS>ATOM
      1 C          -2.8788   -2.8710   -2.6848 C.3     1  UNL1       -0.0148
      2 C          -3.5287   -1.7964   -1.8572 C.2     1  UNL1       -0.0719
      3 C          -2.5877   -1.0821   -1.2176 C.ar    1  UNL1       -0.0132
      4 C          -2.7403    0.0525   -0.2959 C.ar    1  UNL1       -0.0034
      5 C          -1.6178    0.5967    0.2402 C.ar    1  UNL1       -0.0103
      6 C          -0.3462    0.0431   -0.1134 C.ar    1  UNL1        0.1375
      7 O           0.8692    0.4765    0.3348 O.2     1  UNL1       -0.4540
      8 C           1.8467   -0.3011   -0.2287 C.ar    1  UNL1        0.1474
      9 C           1.2598   -1.2531   -1.0587 C.ar    1  UNL1        0.0472
     10 C           2.0984   -2.1382   -1.7238 C.ar    1  UNL1        0.0396
     11 N           3.4392   -2.0612   -1.5595 N.ar    1  UNL1       -0.2541
     12 C           3.9786   -1.1319   -0.7514 C.ar    1  UNL1        0.0751
     13 C           5.3541   -1.1192   -0.6375 C.ar    1  UNL1       -0.0350
     14 C           6.0209   -0.1980    0.1731 C.ar    1  UNL1       -0.0520
     15 C           5.3137    0.7571    0.9091 C.ar    1  UNL1       -0.0171
     16 C           6.0132    1.6705    1.7164 C.ar    1  UNL1       -0.0540
     17 C           5.3381    2.6329    2.4620 C.ar    1  UNL1       -0.0612
     18 C           3.9541    2.6918    2.4082 C.ar    1  UNL1       -0.0611
     19 C           3.2484    1.7882    1.6083 C.ar    1  UNL1       -0.0533
     20 C           3.9009    0.7948    0.8345 C.ar    1  UNL1       -0.0052
     21 C           3.2442   -0.1732   -0.0154 C.ar    1  UNL1        0.0509
     22 C          -0.1310   -1.0252   -0.9785 C.ar    1  UNL1        0.0368
     23 C          -1.2703   -1.6322   -1.5667 C.ar    1  UNL1       -0.0098
     24 C          -1.4166   -2.6593   -2.4122 C.2     1  UNL1       -0.0718
     25 C          -4.0324    0.6530    0.0465 C.ar    1  UNL1        0.0291
     26 C          -4.8659    1.3027   -0.8699 C.ar    1  UNL1        0.0375
     27 N          -6.0898    1.8772   -0.6269 N.ar    1  UNL1       -0.2604
     28 C          -6.6314    1.8599    0.6269 C.ar    1  UNL1        0.0557
     29 C          -5.9015    1.2365    1.6588 C.ar    1  UNL1        0.1185
     30 N          -6.2720    1.1214    2.9443 N.ar    1  UNL1       -0.1892
     31 S          -5.0504    0.3000    3.7116 S.2     1  UNL1        0.1165
     32 N          -3.9996    0.0595    2.4513 N.ar    1  UNL1       -0.1901
     33 C          -4.5610    0.6134    1.3608 C.ar    1  UNL1        0.1105
     34 H          -3.1045   -2.7394   -3.7471 H       1  UNL1        0.0350
     35 H          -3.1995   -3.8650   -2.3593 H       1  UNL1        0.0350
     36 H          -4.5972   -1.6538   -1.7990 H       1  UNL1        0.0581
     37 H          -1.6367    1.4378    0.9249 H       1  UNL1        0.0661
     38 H           1.7448   -2.9149   -2.3907 H       1  UNL1        0.0837
     39 H           5.9352   -1.8496   -1.1966 H       1  UNL1        0.0639
     40 H           7.1073   -0.2403    0.2199 H       1  UNL1        0.0624
     41 H           7.0996    1.6381    1.7708 H       1  UNL1        0.0624
     42 H           5.8924    3.3321    3.0819 H       1  UNL1        0.0618
     43 H           3.4153    3.4379    2.9864 H       1  UNL1        0.0618
     44 H           2.1661    1.8764    1.6028 H       1  UNL1        0.0624
     45 H          -0.6321   -3.2627   -2.8393 H       1  UNL1        0.0581
     46 H          -4.5519    1.3913   -1.9109 H       1  UNL1        0.0836
     47 H          -7.5974    2.3265    0.7676 H       1  UNL1        0.0852
@<TRIPOS>BOND
     1     1     2    1
     2     2     3    2
     3     3     4   ar
     4     4     5   ar
     5     5     6   ar
     6     6     7   ar
     7     7     8   ar
     8     8     9   ar
     9     9    10   ar
    10    10    11   ar
    11    11    12   ar
    12    12    13   ar
    13    13    14   ar
    14    14    15   ar
    15    15    16   ar
    16    16    17   ar
    17    17    18   ar
    18    18    19   ar
    19    19    20   ar
    20    20    21   ar
    21     9    22   ar
    22    22    23   ar
    23    23    24    2
    24     4    25    1
    25    25    26   ar
    26    26    27   ar
    27    27    28   ar
    28    28    29   ar
    29    29    30   ar
    30    30    31   ar
    31    31    32   ar
    32    32    33   ar
    33    24     1    1
    34    33    25   ar
    35    23     3   ar
    36    33    29   ar
    37    22     6   ar
    38    21     8   ar
    39    21    12   ar
    40    20    15   ar
    41     1    34    1
    42     1    35    1
    43     2    36    1
    44     5    37    1
    45    10    38    1
    46    13    39    1
    47    14    40    1
    48    16    41    1
    49    17    42    1
    50    18    43    1
    51    19    44    1
    52    24    45    1
    53    26    46    1
    54    28    47    1
