@<TRIPOS>MOLECULE
*****
 42 48 0 0 0
SMALL
GASTEIGER

@<TRIPOS>ATOM
      1 C           0.3290   -0.4898    3.2801 C.3     1  UNL1        0.0000
      2 C           1.3729    0.0450    2.3488 C.2     1  UNL1        0.0000
      3 C           0.8145    0.3374    1.1625 C.ar    1  UNL1        0.0000
      4 C           1.4460    0.9427   -0.0147 C.ar    1  UNL1        0.0000
      5 C           0.6595    1.2204   -1.0821 C.ar    1  UNL1        0.0000
      6 C          -0.7316    0.8878   -1.0252 C.ar    1  UNL1        0.0000
      7 O          -1.6241    1.1301   -2.0409 O.2     1  UNL1        0.0000
      8 C          -2.8377    0.6411   -1.6550 C.ar    1  UNL1        0.0000
      9 C          -4.0161    0.6972   -2.4338 C.ar    1  UNL1        0.0000
     10 C          -5.2094    0.1318   -1.9464 C.ar    1  UNL1        0.0000
     11 C          -5.0456   -0.4567   -0.6987 C.ar    1  UNL1        0.0000
     12 C          -6.0425   -1.1148   -0.0188 C.ar    1  UNL1        0.0000
     13 N          -5.4957   -1.5932    1.1566 N.ar    1  UNL1        0.0000
     14 C          -4.1567   -1.2543    1.2375 C.ar    1  UNL1        0.0000
     15 C          -3.8917   -0.5362    0.1105 C.ar    1  UNL1        0.0000
     16 C          -2.7065    0.0785   -0.3957 C.ar    1  UNL1        0.0000
     17 C          -1.3972    0.2654    0.0474 C.ar    1  UNL1        0.0000
     18 C          -0.6205    0.0025    1.2109 C.ar    1  UNL1        0.0000
     19 C          -0.9126   -0.4494    2.4367 C.2     1  UNL1        0.0000
     20 C           2.8381    1.2411   -0.1276 C.ar    1  UNL1        0.0000
     21 S           3.4157    2.8773   -0.0014 S.2     1  UNL1        0.0000
     22 C           5.0687    2.4182   -0.2072 C.ar    1  UNL1        0.0000
     23 C           5.1784    1.0635   -0.3596 C.ar    1  UNL1        0.0000
     24 C           6.3284    0.2351   -0.5535 C.2     1  UNL1        0.0000
     25 C           6.0637   -1.0851   -0.6674 C.2     1  UNL1        0.0000
     26 SI          4.1806   -1.4353   -0.5291 Si      1  UNL1        0.0000
     27 C           3.9152    0.4194   -0.3093 C.ar    1  UNL1        0.0000
     28 H           0.5617   -1.5122    3.5916 H       1  UNL1        0.0000
     29 H           0.2249    0.1497    4.1616 H       1  UNL1        0.0000
     30 H           2.4057    0.2016    2.6227 H       1  UNL1        0.0000
     31 H           1.0434    1.6669   -1.9930 H       1  UNL1        0.0000
     32 H          -3.9916    1.1735   -3.4091 H       1  UNL1        0.0000
     33 H          -6.1336    0.1465   -2.5083 H       1  UNL1        0.0000
     34 H          -7.0811   -1.3028   -0.2552 H       1  UNL1        0.0000
     35 H          -5.9979   -2.1332    1.8493 H       1  UNL1        0.0000
     36 H          -3.5728   -1.5908    2.0760 H       1  UNL1        0.0000
     37 H          -1.8788   -0.7181    2.8178 H       1  UNL1        0.0000
     38 H           5.8458    3.1693   -0.2007 H       1  UNL1        0.0000
     39 H           7.3303    0.6456   -0.6046 H       1  UNL1        0.0000
     40 H           6.7641   -1.8904   -0.8181 H       1  UNL1        0.0000
     41 H           3.8959   -2.2412    0.6850 H       1  UNL1        0.0000
     42 H           3.6613   -1.9839   -1.8065 H       1  UNL1        0.0000
@<TRIPOS>BOND
     1     1     2    1
     2     2     3    2
     3     3     4   ar
     4     4     5   ar
     5     5     6   ar
     6     6     7   ar
     7     7     8   ar
     8     8     9   ar
     9     9    10   ar
    10    10    11   ar
    11    11    12   ar
    12    12    13   ar
    13    13    14   ar
    14    14    15   ar
    15    15    16   ar
    16    16    17   ar
    17    17    18   ar
    18    18    19    2
    19     4    20    1
    20    20    21   ar
    21    21    22   ar
    22    22    23   ar
    23    23    24    1
    24    24    25    2
    25    25    26    1
    26    26    27    1
    27    19     1    1
    28    27    20   ar
    29    18     3   ar
    30    27    23   ar
    31    17     6   ar
    32    16     8   ar
    33    15    11   ar
    34     1    28    1
    35     1    29    1
    36     2    30    1
    37     5    31    1
    38     9    32    1
    39    10    33    1
    40    12    34    1
    41    13    35    1
    42    14    36    1
    43    19    37    1
    44    22    38    1
    45    24    39    1
    46    25    40    1
    47    26    41    1
    48    26    42    1
