@<TRIPOS>MOLECULE
*****
 47 54 0 0 0
SMALL
GASTEIGER

@<TRIPOS>ATOM
      1 C           3.1244   -2.8915   -0.9606 C.3     1  UNL1        0.0000
      2 C           3.7274   -2.1012    0.1601 C.2     1  UNL1        0.0000
      3 C           2.8629   -1.1626    0.5840 C.ar    1  UNL1        0.0000
      4 C           3.0617   -0.0905    1.5727 C.ar    1  UNL1        0.0000
      5 C           2.0807    0.8444    1.6692 C.ar    1  UNL1        0.0000
      6 C           0.8889    0.7079    0.8834 C.ar    1  UNL1        0.0000
      7 S          -0.3441    1.8765    0.9135 S.2     1  UNL1        0.0000
      8 C          -1.3094    1.0261   -0.2086 C.ar    1  UNL1        0.0000
      9 C          -0.7877   -0.2537   -0.4176 C.ar    1  UNL1        0.0000
     10 C           0.5724   -0.3383    0.0245 C.ar    1  UNL1        0.0000
     11 C           1.6214   -1.2859   -0.2028 C.ar    1  UNL1        0.0000
     12 C           1.7850   -2.2428   -1.1276 C.2     1  UNL1        0.0000
     13 C          -1.6377   -1.2387   -1.0346 C.ar    1  UNL1        0.0000
     14 C          -1.4696   -2.5769   -1.0096 C.2     1  UNL1        0.0000
     15 SI         -2.8505   -3.4815   -1.8568 Si      1  UNL1        0.0000
     16 C          -3.6874   -1.8339   -2.0991 C.2     1  UNL1        0.0000
     17 C          -2.9462   -0.8125   -1.6123 C.ar    1  UNL1        0.0000
     18 C          -3.4037    0.6101   -1.5413 C.ar    1  UNL1        0.0000
     19 C          -4.6278    1.0129   -2.1855 C.ar    1  UNL1        0.0000
     20 C          -5.1491    2.3200   -2.1697 C.ar    1  UNL1        0.0000
     21 C          -4.3280    3.1990   -1.4739 C.ar    1  UNL1        0.0000
     22 C          -4.6548    4.5288   -1.3720 C.ar    1  UNL1        0.0000
     23 S          -3.4593    5.3936   -0.5083 S.2     1  UNL1        0.0000
     24 C          -2.5062    3.9780   -0.2818 C.ar    1  UNL1        0.0000
     25 C          -3.0817    2.8459   -0.8149 C.ar    1  UNL1        0.0000
     26 C          -2.5678    1.5238   -0.8003 C.ar    1  UNL1        0.0000
     27 C           4.2505    0.0528    2.4548 C.ar    1  UNL1        0.0000
     28 N           4.9187   -1.0556    2.7876 N.ar    1  UNL1        0.0000
     29 C           5.9550   -0.8623    3.5984 C.ar    1  UNL1        0.0000
     30 N           6.3645    0.3060    4.0825 N.ar    1  UNL1        0.0000
     31 C           5.6260    1.3378    3.6863 C.ar    1  UNL1        0.0000
     32 N           4.5654    1.2808    2.8859 N.ar    1  UNL1        0.0000
     33 H           3.0240   -3.9479   -0.6947 H       1  UNL1        0.0000
     34 H           3.7221   -2.7955   -1.8718 H       1  UNL1        0.0000
     35 H           4.7356   -2.2529    0.5145 H       1  UNL1        0.0000
     36 H           2.1538    1.6792    2.3610 H       1  UNL1        0.0000
     37 H           1.0976   -2.4977   -1.9172 H       1  UNL1        0.0000
     38 H          -0.6771   -3.1292   -0.5343 H       1  UNL1        0.0000
     39 H          -2.4269   -4.0947   -3.1384 H       1  UNL1        0.0000
     40 H          -3.6047   -4.3697   -0.9406 H       1  UNL1        0.0000
     41 H          -4.6746   -1.8068   -2.5278 H       1  UNL1        0.0000
     42 H          -5.2098    0.2761   -2.7363 H       1  UNL1        0.0000
     43 H          -6.0737    2.5846   -2.6661 H       1  UNL1        0.0000
     44 H          -5.5194    5.0474   -1.7628 H       1  UNL1        0.0000
     45 H          -1.5740    4.1140    0.2387 H       1  UNL1        0.0000
     46 H           6.5191   -1.7409    3.8916 H       1  UNL1        0.0000
     47 H           5.9138    2.3178    4.0513 H       1  UNL1        0.0000
@<TRIPOS>BOND
     1     1     2    1
     2     2     3    2
     3     3     4   ar
     4     4     5   ar
     5     5     6   ar
     6     6     7   ar
     7     7     8   ar
     8     8     9   ar
     9     9    10   ar
    10    10    11   ar
    11    11    12    2
    12     9    13   ar
    13    13    14    2
    14    14    15    1
    15    15    16    1
    16    16    17    2
    17    17    18   ar
    18    18    19   ar
    19    19    20   ar
    20    20    21   ar
    21    21    22   ar
    22    22    23   ar
    23    23    24   ar
    24    24    25   ar
    25    25    26   ar
    26     4    27    1
    27    27    28   ar
    28    28    29   ar
    29    29    30   ar
    30    30    31   ar
    31    31    32   ar
    32    12     1    1
    33    17    13   ar
    34    26    18   ar
    35    32    27   ar
    36    11     3   ar
    37    25    21   ar
    38    10     6   ar
    39    26     8   ar
    40     1    33    1
    41     1    34    1
    42     2    35    1
    43     5    36    1
    44    12    37    1
    45    14    38    1
    46    15    39    1
    47    15    40    1
    48    16    41    1
    49    19    42    1
    50    20    43    1
    51    22    44    1
    52    24    45    1
    53    29    46    1
    54    31    47    1
