@<TRIPOS>MOLECULE
*****
 45 52 0 0 0
SMALL
GASTEIGER

@<TRIPOS>ATOM
      1 C           0.8872   -3.7282   -0.4578 C.3     1  UNL1       -0.0148
      2 C           2.0262   -2.7681   -0.3085 C.2     1  UNL1       -0.0719
      3 C           1.5507   -1.5335   -0.0752 C.ar    1  UNL1       -0.0129
      4 C           2.2950   -0.3195    0.2671 C.ar    1  UNL1       -0.0022
      5 C           1.5780    0.7833    0.5930 C.ar    1  UNL1       -0.0386
      6 C           0.1446    0.7314    0.5326 C.ar    1  UNL1        0.0217
      7 S          -0.8060    2.0574    1.0343 S.2     1  UNL1       -0.0875
      8 C          -2.2920    1.3039    0.5480 C.ar    1  UNL1        0.0303
      9 C          -1.9841    0.0587   -0.0075 C.ar    1  UNL1        0.0088
     10 C          -3.0904   -0.6178   -0.6275 C.ar    1  UNL1        0.0293
     11 C          -3.1581   -1.7140   -1.4322 C.ar    1  UNL1        0.1000
     12 O          -4.4693   -1.9183   -1.7745 O.2     1  UNL1       -0.4698
     13 C          -5.1996   -0.9072   -1.2111 C.ar    1  UNL1        0.1000
     14 C          -4.3738   -0.0521   -0.5177 C.ar    1  UNL1        0.0283
     15 C          -4.7587    1.1423    0.1151 C.ar    1  UNL1       -0.0032
     16 C          -6.0554    1.6835    0.2229 C.ar    1  UNL1       -0.0352
     17 C          -6.1913    2.9031    0.8599 C.ar    1  UNL1        0.0282
     18 N          -5.1585    3.6037    1.3763 N.ar    1  UNL1       -0.2626
     19 C          -3.9186    3.0619    1.2570 C.ar    1  UNL1        0.0364
     20 C          -3.6400    1.8336    0.6437 C.ar    1  UNL1        0.0152
     21 C          -0.6335   -0.3466    0.1104 C.ar    1  UNL1        0.0051
     22 C           0.0784   -1.5670   -0.1276 C.ar    1  UNL1       -0.0124
     23 C          -0.3100   -2.8415   -0.2742 C.2     1  UNL1       -0.0719
     24 C           3.7152   -0.2037    0.3230 C.ar    1  UNL1        0.0291
     25 S           4.6507   -0.9855    1.5817 S.2     1  UNL1       -0.0939
     26 C           6.1707   -0.3825    0.9960 C.ar    1  UNL1        0.0002
     27 C           5.9232    0.3702   -0.0935 C.ar    1  UNL1        0.0542
     28 N           6.8371    1.0342   -0.8581 N.ar    1  UNL1       -0.3602
     29 C           6.0116    1.6222   -1.8154 C.ar    1  UNL1        0.0028
     30 C           4.6539    1.2993   -1.6013 C.ar    1  UNL1       -0.0356
     31 C           4.5992    0.4663   -0.4539 C.ar    1  UNL1        0.0144
     32 H           0.9238   -4.5010    0.3158 H       1  UNL1        0.0350
     33 H           0.8860   -4.1956   -1.4466 H       1  UNL1        0.0350
     34 H           3.0651   -3.0612   -0.3199 H       1  UNL1        0.0581
     35 H           2.0648    1.7108    0.8832 H       1  UNL1        0.0635
     36 H          -2.4625   -2.4081   -1.8761 H       1  UNL1        0.1036
     37 H          -6.2583   -0.9360   -1.4266 H       1  UNL1        0.1036
     38 H          -6.9249    1.1769   -0.1773 H       1  UNL1        0.0639
     39 H          -7.1662    3.3691    0.9736 H       1  UNL1        0.0830
     40 H          -3.1346    3.6748    1.6938 H       1  UNL1        0.0836
     41 H          -1.3135   -3.2274   -0.2242 H       1  UNL1        0.0581
     42 H           7.1103   -0.6126    1.4775 H       1  UNL1        0.0714
     43 H           7.8419    1.0729   -0.7391 H       1  UNL1        0.1653
     44 H           6.4597    2.2337   -2.5883 H       1  UNL1        0.0807
     45 H           3.8261    1.6344   -2.2125 H       1  UNL1        0.0639
@<TRIPOS>BOND
     1     1     2    1
     2     2     3    2
     3     3     4   ar
     4     4     5   ar
     5     5     6   ar
     6     6     7   ar
     7     7     8   ar
     8     8     9   ar
     9     9    10   ar
    10    10    11   ar
    11    11    12   ar
    12    12    13   ar
    13    13    14   ar
    14    14    15   ar
    15    15    16   ar
    16    16    17   ar
    17    17    18   ar
    18    18    19   ar
    19    19    20   ar
    20     9    21   ar
    21    21    22   ar
    22    22    23    2
    23     4    24    1
    24    24    25   ar
    25    25    26   ar
    26    26    27   ar
    27    27    28   ar
    28    28    29   ar
    29    29    30   ar
    30    30    31   ar
    31    23     1    1
    32    31    24   ar
    33    22     3   ar
    34    31    27   ar
    35    21     6   ar
    36    20     8   ar
    37    14    10   ar
    38    20    15   ar
    39     1    32    1
    40     1    33    1
    41     2    34    1
    42     5    35    1
    43    11    36    1
    44    13    37    1
    45    16    38    1
    46    17    39    1
    47    19    40    1
    48    23    41    1
    49    26    42    1
    50    28    43    1
    51    29    44    1
    52    30    45    1
