@<TRIPOS>MOLECULE
*****
 44 50 0 0 0
SMALL
GASTEIGER

@<TRIPOS>ATOM
      1 C          -1.1115   -3.4676    0.5052 C.3     1  UNL1       -0.0148
      2 C          -2.0124   -2.2700    0.4796 C.2     1  UNL1       -0.0719
      3 C          -1.2765   -1.1532    0.3614 C.ar    1  UNL1       -0.0134
      4 C          -1.7264    0.2353    0.2938 C.ar    1  UNL1       -0.0088
      5 C          -0.7884    1.2060    0.1885 C.ar    1  UNL1       -0.0391
      6 C           0.5957    0.8297    0.1318 C.ar    1  UNL1        0.0217
      7 S           1.8297    1.9907   -0.0107 S.2     1  UNL1       -0.0879
      8 C           3.0654    0.7975   -0.0119 C.ar    1  UNL1        0.0245
      9 C           4.4475    1.0064   -0.1066 C.ar    1  UNL1       -0.0222
     10 C           5.2410    2.2805   -0.2308 C.3     1  UNL1       -0.0075
     11 C           6.6486    1.7388   -0.2818 C.2     1  UNL1       -0.0791
     12 C           6.6920    0.3994   -0.2035 C.2     1  UNL1       -0.0579
     13 C           5.3256   -0.0839   -0.0931 C.ar    1  UNL1       -0.0208
     14 C           4.8658   -1.3747    0.0118 C.ar    1  UNL1       -0.0537
     15 C           3.4831   -1.5854    0.1067 C.ar    1  UNL1       -0.0523
     16 C           2.5475   -0.5056    0.0975 C.ar    1  UNL1       -0.0022
     17 C           1.1093   -0.4637    0.1807 C.ar    1  UNL1        0.0044
     18 C           0.1465   -1.5196    0.3030 C.ar    1  UNL1       -0.0124
     19 C           0.2541   -2.8532    0.3847 C.2     1  UNL1       -0.0719
     20 C          -3.1273    0.6504    0.3560 C.ar    1  UNL1       -0.0091
     21 C          -3.7605    1.1344    1.5258 C.ar    1  UNL1       -0.0534
     22 C          -5.1369    1.5269    1.5809 C.ar    1  UNL1       -0.0606
     23 C          -6.0178    1.4738    0.4782 C.ar    1  UNL1       -0.0535
     24 C          -5.3882    0.9932   -0.6707 C.ar    1  UNL1       -0.0103
     25 C          -6.0453    0.8521   -1.8678 C.ar    1  UNL1       -0.0166
     26 S          -4.9969    0.2398   -3.0848 S.2     1  UNL1       -0.1039
     27 C          -3.6602    0.1668   -2.0046 C.ar    1  UNL1       -0.0160
     28 C          -4.0026    0.5942   -0.7422 C.ar    1  UNL1       -0.0032
     29 H          -1.2136   -4.0176    1.4453 H       1  UNL1        0.0350
     30 H          -1.3183   -4.1346   -0.3369 H       1  UNL1        0.0350
     31 H          -3.0889   -2.3202    0.5456 H       1  UNL1        0.0581
     32 H          -1.0596    2.2570    0.1388 H       1  UNL1        0.0635
     33 H           4.9925    2.8149   -1.1521 H       1  UNL1        0.0356
     34 H           5.0992    2.9234    0.6425 H       1  UNL1        0.0356
     35 H           7.5182    2.3744   -0.3720 H       1  UNL1        0.0575
     36 H           7.5674   -0.2294   -0.2177 H       1  UNL1        0.0621
     37 H           5.5506   -2.2163    0.0215 H       1  UNL1        0.0624
     38 H           3.1316   -2.6082    0.1884 H       1  UNL1        0.0624
     39 H           1.1566   -3.4384    0.3725 H       1  UNL1        0.0581
     40 H          -3.1739    1.2112    2.4424 H       1  UNL1        0.0624
     41 H          -5.5258    1.8865    2.5345 H       1  UNL1        0.0618
     42 H          -7.0549    1.7754    0.5428 H       1  UNL1        0.0624
     43 H          -7.0770    1.0706   -2.1063 H       1  UNL1        0.0699
     44 H          -2.7046   -0.1878   -2.3665 H       1  UNL1        0.0700
@<TRIPOS>BOND
     1     1     2    1
     2     2     3    2
     3     3     4   ar
     4     4     5   ar
     5     5     6   ar
     6     6     7   ar
     7     7     8   ar
     8     8     9   ar
     9     9    10    1
    10    10    11    1
    11    11    12    2
    12    12    13    1
    13    13    14   ar
    14    14    15   ar
    15    15    16   ar
    16    16    17   ar
    17    17    18   ar
    18    18    19    2
    19     4    20    1
    20    20    21   ar
    21    21    22   ar
    22    22    23   ar
    23    23    24   ar
    24    24    25   ar
    25    25    26   ar
    26    26    27   ar
    27    27    28   ar
    28    19     1    1
    29    28    20   ar
    30    18     3   ar
    31    28    24   ar
    32    17     6   ar
    33    16     8   ar
    34    13     9   ar
    35     1    29    1
    36     1    30    1
    37     2    31    1
    38     5    32    1
    39    10    33    1
    40    10    34    1
    41    11    35    1
    42    12    36    1
    43    14    37    1
    44    15    38    1
    45    19    39    1
    46    21    40    1
    47    22    41    1
    48    23    42    1
    49    25    43    1
    50    27    44    1
