@<TRIPOS>MOLECULE
*****
 41 47 0 0 0
SMALL
GASTEIGER

@<TRIPOS>ATOM
      1 C          -1.0058    0.7558   -3.2041 C.3     1  UNL1       -0.0148
      2 C          -1.9194    0.7458   -2.0085 C.2     1  UNL1       -0.0719
      3 C          -1.1988    0.5842   -0.8860 C.ar    1  UNL1       -0.0128
      4 C          -1.6438    0.5207    0.5142 C.ar    1  UNL1       -0.0025
      5 C          -0.7004    0.3628    1.4811 C.ar    1  UNL1       -0.0385
      6 C           0.6829    0.2710    1.0988 C.ar    1  UNL1        0.0247
      7 S           1.9503    0.0740    2.2543 S.2     1  UNL1       -0.0843
      8 C           3.1328    0.0630    0.9780 C.ar    1  UNL1        0.0662
      9 C           4.5342   -0.0461    0.7810 C.ar    1  UNL1        0.0345
     10 C           5.6736   -0.2045    1.5850 C.ar    1  UNL1       -0.0499
     11 C           6.9245   -0.2690    0.9564 C.ar    1  UNL1       -0.0609
     12 C           7.0374   -0.1783   -0.4337 C.ar    1  UNL1       -0.0582
     13 C           5.9069   -0.0203   -1.2435 C.ar    1  UNL1       -0.0187
     14 C           4.6722    0.0415   -0.5971 C.ar    1  UNL1        0.1368
     15 O           3.4771    0.1925   -1.2344 O.2     1  UNL1       -0.4536
     16 C           2.5442    0.2032   -0.2385 C.ar    1  UNL1        0.1515
     17 C           1.1503    0.3242   -0.2086 C.ar    1  UNL1        0.0395
     18 C           0.2157    0.4847   -1.2567 C.ar    1  UNL1       -0.0094
     19 C           0.3505    0.5776   -2.5846 C.2     1  UNL1       -0.0718
     20 C          -3.0104    0.5719    0.9281 C.ar    1  UNL1        0.0240
     21 S          -3.6408    1.9521    1.7850 S.2     1  UNL1       -0.0958
     22 C          -5.2336    1.2915    1.8885 C.ar    1  UNL1       -0.0163
     23 C          -5.2569    0.0750    1.2812 C.ar    1  UNL1       -0.0142
     24 C          -6.2311   -0.9247    1.0416 C.2     1  UNL1       -0.0574
     25 C          -5.6587   -1.9496    0.3691 C.2     1  UNL1       -0.0791
     26 C          -4.1734   -1.6806    0.1005 C.3     1  UNL1       -0.0075
     27 C          -4.0209   -0.3392    0.7360 C.ar    1  UNL1       -0.0217
     28 H          -1.2399   -0.0687   -3.8839 H       1  UNL1        0.0350
     29 H          -1.0717    1.7070   -3.7403 H       1  UNL1        0.0350
     30 H          -2.9913    0.8623   -2.0654 H       1  UNL1        0.0581
     31 H          -0.9661    0.2934    2.5322 H       1  UNL1        0.0635
     32 H           5.5917   -0.2752    2.6654 H       1  UNL1        0.0625
     33 H           7.8208   -0.3913    1.5613 H       1  UNL1        0.0618
     34 H           8.0209   -0.2310   -0.8963 H       1  UNL1        0.0619
     35 H           5.9800    0.0517   -2.3221 H       1  UNL1        0.0654
     36 H           1.2796    0.5401   -3.1330 H       1  UNL1        0.0581
     37 H          -6.0295    1.8344    2.3778 H       1  UNL1        0.0699
     38 H          -7.2649   -0.8685    1.3517 H       1  UNL1        0.0621
     39 H          -6.1661   -2.8492    0.0543 H       1  UNL1        0.0575
     40 H          -3.9742   -1.6496   -0.9741 H       1  UNL1        0.0356
     41 H          -3.5479   -2.4347    0.5861 H       1  UNL1        0.0356
@<TRIPOS>BOND
     1     1     2    1
     2     2     3    2
     3     3     4   ar
     4     4     5   ar
     5     5     6   ar
     6     6     7   ar
     7     7     8   ar
     8     8     9   ar
     9     9    10   ar
    10    10    11   ar
    11    11    12   ar
    12    12    13   ar
    13    13    14   ar
    14    14    15   ar
    15    15    16   ar
    16    16    17   ar
    17    17    18   ar
    18    18    19    2
    19     4    20    1
    20    20    21   ar
    21    21    22   ar
    22    22    23   ar
    23    23    24    1
    24    24    25    2
    25    25    26    1
    26    26    27    1
    27    19     1    1
    28    27    20   ar
    29    18     3   ar
    30    27    23   ar
    31    17     6   ar
    32    16     8   ar
    33    14     9   ar
    34     1    28    1
    35     1    29    1
    36     2    30    1
    37     5    31    1
    38    10    32    1
    39    11    33    1
    40    12    34    1
    41    13    35    1
    42    19    36    1
    43    22    37    1
    44    24    38    1
    45    25    39    1
    46    26    40    1
    47    26    41    1
