@<TRIPOS>MOLECULE
*****
 38 44 0 0 0
SMALL
GASTEIGER

@<TRIPOS>ATOM
      1 C          -0.0329    2.2770    2.6317 C.3     1  UNL1        0.0000
      2 C          -1.0576    1.8505    1.6157 C.2     1  UNL1        0.0000
      3 C          -0.4677    1.1258    0.6504 C.ar    1  UNL1        0.0000
      4 C          -1.0557    0.4984   -0.5424 C.ar    1  UNL1        0.0000
      5 C          -0.2412   -0.2061   -1.3727 C.ar    1  UNL1        0.0000
      6 C           1.1584   -0.3024   -1.0573 C.ar    1  UNL1        0.0000
      7 S           2.2818   -1.1854   -2.0695 S.2     1  UNL1        0.0000
      8 C           3.4701   -0.7503   -0.9909 C.ar    1  UNL1        0.0000
      9 C           4.7643   -0.9554   -0.8813 C.ar    1  UNL1        0.0000
     10 O           5.6520   -1.6186   -1.6252 O.2     1  UNL1        0.0000
     11 C           6.8136   -1.4065   -0.9035 C.ar    1  UNL1        0.0000
     12 C           6.6272   -0.6363    0.2449 C.ar    1  UNL1        0.0000
     13 C           5.2537   -0.3731    0.1989 C.ar    1  UNL1        0.0000
     14 O           4.2398    0.2537    0.8465 O.2     1  UNL1        0.0000
     15 C           3.1350   -0.0022    0.0737 C.ar    1  UNL1        0.0000
     16 C           1.7642    0.2830    0.0654 C.ar    1  UNL1        0.0000
     17 C           0.9606    1.0206    0.9615 C.ar    1  UNL1        0.0000
     18 C           1.2349    1.6752    2.0954 C.2     1  UNL1        0.0000
     19 C          -2.4403    0.5593   -0.8918 C.ar    1  UNL1        0.0000
     20 S          -3.0762    1.9776   -1.6783 S.2     1  UNL1        0.0000
     21 C          -4.6761    1.3385   -1.7676 C.ar    1  UNL1        0.0000
     22 C          -4.6993    0.0979   -1.2116 C.ar    1  UNL1        0.0000
     23 SI         -5.9968   -1.2324   -0.9119 Si      1  UNL1        0.0000
     24 C          -4.6299   -2.2984   -0.1021 C.2     1  UNL1        0.0000
     25 C          -3.4378   -1.6621   -0.1109 C.2     1  UNL1        0.0000
     26 C          -3.4509   -0.3588   -0.7108 C.ar    1  UNL1        0.0000
     27 H          -0.2709    1.8758    3.6212 H       1  UNL1        0.0000
     28 H           0.0396    3.3673    2.6826 H       1  UNL1        0.0000
     29 H          -2.1063    2.1015    1.6708 H       1  UNL1        0.0000
     30 H          -0.6208   -0.6926   -2.2668 H       1  UNL1        0.0000
     31 H           7.6908   -1.8693   -1.3376 H       1  UNL1        0.0000
     32 H           7.3679   -0.3340    0.9682 H       1  UNL1        0.0000
     33 H           2.2049    1.7625    2.5608 H       1  UNL1        0.0000
     34 H          -5.4749    1.9140   -2.2154 H       1  UNL1        0.0000
     35 H          -6.5053   -1.8717   -2.1509 H       1  UNL1        0.0000
     36 H          -7.0333   -0.8536    0.0804 H       1  UNL1        0.0000
     37 H          -4.8516   -3.2760    0.2946 H       1  UNL1        0.0000
     38 H          -2.5335   -2.0934    0.3041 H       1  UNL1        0.0000
@<TRIPOS>BOND
     1     1     2    1
     2     2     3    2
     3     3     4   ar
     4     4     5   ar
     5     5     6   ar
     6     6     7   ar
     7     7     8   ar
     8     8     9   ar
     9     9    10   ar
    10    10    11   ar
    11    11    12   ar
    12    12    13   ar
    13    13    14   ar
    14    14    15   ar
    15    15    16   ar
    16    16    17   ar
    17    17    18    2
    18     4    19    1
    19    19    20   ar
    20    20    21   ar
    21    21    22   ar
    22    22    23    1
    23    23    24    1
    24    24    25    2
    25    25    26    1
    26    18     1    1
    27    26    19   ar
    28    17     3   ar
    29    26    22   ar
    30    16     6   ar
    31    15     8   ar
    32    13     9   ar
    33     1    27    1
    34     1    28    1
    35     2    29    1
    36     5    30    1
    37    11    31    1
    38    12    32    1
    39    18    33    1
    40    21    34    1
    41    23    35    1
    42    23    36    1
    43    24    37    1
    44    25    38    1
