@<TRIPOS>MOLECULE
*****
 46 53 0 0 0
SMALL
GASTEIGER

@<TRIPOS>ATOM
      1 SI          0.3278   -3.4971    1.6682 Si      1  UNL1        0.0000
      2 C           1.6545   -2.2809    1.2006 C.2     1  UNL1        0.0000
      3 C           1.1407   -1.1995    0.5770 C.ar    1  UNL1        0.0000
      4 C           1.9472   -0.1707   -0.0782 C.ar    1  UNL1        0.0000
      5 C           1.3253    0.7146   -0.8847 C.ar    1  UNL1        0.0000
      6 C          -0.1372    0.7362   -1.0080 C.ar    1  UNL1        0.0000
      7 C          -0.8140    1.5892   -1.8798 C.ar    1  UNL1        0.0000
      8 C          -0.2822    2.4371   -2.8194 C.ar    1  UNL1        0.0000
      9 O          -1.2845    3.0840   -3.4829 O.2     1  UNL1        0.0000
     10 C          -2.4672    2.6515   -2.9558 C.ar    1  UNL1        0.0000
     11 C          -2.2318    1.7291   -1.9659 C.ar    1  UNL1        0.0000
     12 C          -3.1804    1.0861   -1.1420 C.ar    1  UNL1        0.0000
     13 C          -4.6178    1.3223   -1.2416 C.ar    1  UNL1        0.0000
     14 C          -5.5621    0.7807   -0.3552 C.ar    1  UNL1        0.0000
     15 C          -4.9134    0.0647    0.6342 C.ar    1  UNL1        0.0000
     16 C          -5.5187   -0.4747    1.7375 C.ar    1  UNL1        0.0000
     17 O          -4.5671   -0.9896    2.5670 O.2     1  UNL1        0.0000
     18 C          -3.3531   -0.7767    1.9766 C.ar    1  UNL1        0.0000
     19 C          -3.5080   -0.2002    0.7378 C.ar    1  UNL1        0.0000
     20 C          -2.4933    0.2146   -0.1797 C.ar    1  UNL1        0.0000
     21 C          -1.0341   -0.0529   -0.2156 C.ar    1  UNL1        0.0000
     22 C          -0.3464   -1.1862    0.4770 C.ar    1  UNL1        0.0000
     23 C          -0.9120   -2.3447    0.8778 C.2     1  UNL1        0.0000
     24 C           3.4103   -0.0833    0.0101 C.ar    1  UNL1        0.0000
     25 C           4.2730   -0.5487   -1.0065 C.ar    1  UNL1        0.0000
     26 C           5.6826   -0.4798   -0.9149 C.ar    1  UNL1        0.0000
     27 C           6.3527    0.0555    0.1989 C.ar    1  UNL1        0.0000
     28 C           5.5381    0.5349    1.2540 C.ar    1  UNL1        0.0000
     29 N           5.9829    1.0772    2.3980 N.ar    1  UNL1        0.0000
     30 S           4.6352    1.4699    3.2847 S.2     1  UNL1        0.0000
     31 N           3.4299    0.9733    2.2607 N.ar    1  UNL1        0.0000
     32 C           4.0298    0.4684    1.1677 C.ar    1  UNL1        0.0000
     33 H           0.1387   -3.6079    3.1344 H       1  UNL1        0.0000
     34 H           0.4517   -4.7806    0.9361 H       1  UNL1        0.0000
     35 H           2.6954   -2.5167    1.3542 H       1  UNL1        0.0000
     36 H           1.8902    1.4763   -1.4119 H       1  UNL1        0.0000
     37 H           0.7174    2.6893   -3.1434 H       1  UNL1        0.0000
     38 H          -3.3498    3.1021   -3.3866 H       1  UNL1        0.0000
     39 H          -4.9918    1.9736   -2.0310 H       1  UNL1        0.0000
     40 H          -6.6229    0.9770   -0.4128 H       1  UNL1        0.0000
     41 H          -6.5357   -0.5377    2.0978 H       1  UNL1        0.0000
     42 H          -2.5073   -1.0726    2.5795 H       1  UNL1        0.0000
     43 H          -1.9385   -2.6560    0.7796 H       1  UNL1        0.0000
     44 H           3.8354   -0.9888   -1.9038 H       1  UNL1        0.0000
     45 H           6.2769   -0.8626   -1.7454 H       1  UNL1        0.0000
     46 H           7.4338    0.1006    0.2557 H       1  UNL1        0.0000
@<TRIPOS>BOND
     1     1     2    1
     2     2     3    2
     3     3     4   ar
     4     4     5   ar
     5     5     6   ar
     6     6     7   ar
     7     7     8   ar
     8     8     9   ar
     9     9    10   ar
    10    10    11   ar
    11    11    12   ar
    12    12    13   ar
    13    13    14   ar
    14    14    15   ar
    15    15    16   ar
    16    16    17   ar
    17    17    18   ar
    18    18    19   ar
    19    19    20   ar
    20    20    21   ar
    21    21    22   ar
    22    22    23    2
    23     4    24    1
    24    24    25   ar
    25    25    26   ar
    26    26    27   ar
    27    27    28   ar
    28    28    29   ar
    29    29    30   ar
    30    30    31   ar
    31    31    32   ar
    32    23     1    1
    33    32    24   ar
    34    22     3   ar
    35    32    28   ar
    36    21     6   ar
    37    11     7   ar
    38    20    12   ar
    39    19    15   ar
    40     1    33    1
    41     1    34    1
    42     2    35    1
    43     5    36    1
    44     8    37    1
    45    10    38    1
    46    13    39    1
    47    14    40    1
    48    16    41    1
    49    18    42    1
    50    23    43    1
    51    25    44    1
    52    26    45    1
    53    27    46    1
