@<TRIPOS>MOLECULE
*****
 38 43 0 0 0
SMALL
GASTEIGER

@<TRIPOS>ATOM
      1 C           2.6365   -1.9354   -2.1130 C.3     1  UNL1        0.0000
      2 C           1.3851   -1.3828   -1.4884 C.2     1  UNL1        0.0000
      3 C           1.7078   -0.5598   -0.4772 C.ar    1  UNL1        0.0000
      4 C           0.8377    0.2059    0.4187 C.ar    1  UNL1        0.0000
      5 C           1.4149    0.9617    1.3868 C.ar    1  UNL1        0.0000
      6 C           2.8473    0.9887    1.4805 C.ar    1  UNL1        0.0000
      7 S           3.6864    1.9088    2.6513 S.2     1  UNL1        0.0000
      8 C           5.2102    1.3838    2.0638 C.ar    1  UNL1        0.0000
      9 C           5.0931    0.5211    0.9942 C.ar    1  UNL1        0.0000
     10 C           3.7329    0.2968    0.6622 C.ar    1  UNL1        0.0000
     11 C           3.1684   -0.5157   -0.3613 C.ar    1  UNL1        0.0000
     12 C           3.7237   -1.2991   -1.2942 C.2     1  UNL1        0.0000
     13 C          -0.6216    0.1957    0.3499 C.ar    1  UNL1        0.0000
     14 C          -1.4712   -0.5032    1.2500 C.ar    1  UNL1        0.0000
     15 C          -2.8970   -0.4880    1.1269 C.ar    1  UNL1        0.0000
     16 SI         -4.1816   -1.3508    2.2184 Si      1  UNL1        0.0000
     17 C          -5.5404   -0.6223    1.1181 C.2     1  UNL1        0.0000
     18 C          -5.0694    0.1358    0.1098 C.2     1  UNL1        0.0000
     19 C          -3.6159    0.2128    0.1093 C.ar    1  UNL1        0.0000
     20 C          -2.7695    0.8857   -0.7583 C.ar    1  UNL1        0.0000
     21 C          -3.0769    1.6584   -1.8449 C.ar    1  UNL1        0.0000
     22 O          -1.9224    2.1310   -2.4099 O.2     1  UNL1        0.0000
     23 C          -0.8718    1.6535   -1.6723 C.ar    1  UNL1        0.0000
     24 C          -1.3421    0.8770   -0.6445 C.ar    1  UNL1        0.0000
     25 H           2.7130   -1.6426   -3.1643 H       1  UNL1        0.0000
     26 H           2.6684   -3.0257   -2.0299 H       1  UNL1        0.0000
     27 H           0.3865   -1.6246   -1.8201 H       1  UNL1        0.0000
     28 H           0.8245    1.5505    2.0829 H       1  UNL1        0.0000
     29 H           6.1182    1.7353    2.5339 H       1  UNL1        0.0000
     30 H           5.9432    0.0828    0.4873 H       1  UNL1        0.0000
     31 H           4.7789   -1.4621   -1.4459 H       1  UNL1        0.0000
     32 H          -1.0144   -1.0748    2.0584 H       1  UNL1        0.0000
     33 H          -4.2241   -0.7969    3.5944 H       1  UNL1        0.0000
     34 H          -4.1165   -2.8297    2.1145 H       1  UNL1        0.0000
     35 H          -6.5780   -0.8309    1.3302 H       1  UNL1        0.0000
     36 H          -5.6818    0.6384   -0.6251 H       1  UNL1        0.0000
     37 H          -3.9914    1.9645   -2.3322 H       1  UNL1        0.0000
     38 H           0.1092    1.9562   -2.0111 H       1  UNL1        0.0000
@<TRIPOS>BOND
     1     1     2    1
     2     2     3    2
     3     3     4   ar
     4     4     5   ar
     5     5     6   ar
     6     6     7   ar
     7     7     8   ar
     8     8     9   ar
     9     9    10   ar
    10    10    11   ar
    11    11    12    2
    12     4    13    1
    13    13    14   ar
    14    14    15   ar
    15    15    16    1
    16    16    17    1
    17    17    18    2
    18    18    19    1
    19    19    20   ar
    20    20    21   ar
    21    21    22   ar
    22    22    23   ar
    23    23    24   ar
    24    12     1    1
    25    24    13   ar
    26    11     3   ar
    27    19    15   ar
    28    24    20   ar
    29    10     6   ar
    30     1    25    1
    31     1    26    1
    32     2    27    1
    33     5    28    1
    34     8    29    1
    35     9    30    1
    36    12    31    1
    37    14    32    1
    38    16    33    1
    39    16    34    1
    40    17    35    1
    41    18    36    1
    42    21    37    1
    43    23    38    1
