@<TRIPOS>MOLECULE
*****
 50 57 0 0 0
SMALL
GASTEIGER

@<TRIPOS>ATOM
      1 C           2.9112    3.3423    1.7122 C.3     1  UNL1       -0.0148
      2 C           1.6142    2.6648    1.3918 C.2     1  UNL1       -0.0719
      3 C           1.8348    1.5553    0.6705 C.ar    1  UNL1       -0.0114
      4 C           0.9422    0.5436    0.1912 C.ar    1  UNL1        0.0160
      5 C           1.5112   -0.6563   -0.2291 C.ar    1  UNL1        0.0566
      6 N           0.4852   -1.5440   -0.3639 N.ar    1  UNL1       -0.3536
      7 C          -0.7264   -0.9130   -0.1918 C.ar    1  UNL1        0.0487
      8 C          -2.0077   -1.4679   -0.2245 C.ar    1  UNL1       -0.0281
      9 C          -3.1115   -0.6225   -0.0506 C.ar    1  UNL1        0.0080
     10 C          -4.4311   -1.2571   -0.0085 C.ar    1  UNL1        0.0471
     11 C          -5.1441   -1.9234   -0.9885 C.ar    1  UNL1       -0.0364
     12 C          -6.3606   -2.3668   -0.4152 C.ar    1  UNL1       -0.0438
     13 C          -6.3581   -1.9741    0.9037 C.ar    1  UNL1        0.0022
     14 N          -5.1831   -1.3115    1.1439 N.ar    1  UNL1       -0.3606
     15 C          -2.9391    0.7787    0.0543 C.ar    1  UNL1       -0.0081
     16 C          -4.0277    1.6834    0.1140 C.ar    1  UNL1       -0.0534
     17 C          -3.8404    3.0660    0.1459 C.ar    1  UNL1       -0.0611
     18 C          -2.5576    3.5871    0.0906 C.ar    1  UNL1       -0.0611
     19 C          -1.4624    2.7254    0.0349 C.ar    1  UNL1       -0.0534
     20 C          -1.6211    1.3221    0.0613 C.ar    1  UNL1       -0.0075
     21 C          -0.4822    0.4469    0.0303 C.ar    1  UNL1        0.0157
     22 C           2.9412   -0.8958   -0.3911 C.ar    1  UNL1        0.0173
     23 C           3.5790   -2.0144   -0.9342 C.ar    1  UNL1        0.0295
     24 C           3.0602   -3.1697   -1.4618 C.ar    1  UNL1        0.1000
     25 O           4.0715   -3.9900   -1.8870 O.2     1  UNL1       -0.4698
     26 C           5.2529   -3.3472   -1.6487 C.ar    1  UNL1        0.0994
     27 C           4.9981   -2.1307   -1.0768 C.ar    1  UNL1        0.0205
     28 C           5.9419   -1.1790   -0.7178 C.ar    1  UNL1       -0.0504
     29 C           5.3144   -0.0281   -0.1833 C.ar    1  UNL1       -0.0527
     30 C           3.8874    0.1253   -0.0231 C.ar    1  UNL1       -0.0078
     31 C           3.2936    1.3592    0.5547 C.ar    1  UNL1       -0.0134
     32 C           3.9205    2.3996    1.1317 C.2     1  UNL1       -0.0719
     33 H           3.0452    3.4389    2.7937 H       1  UNL1        0.0350
     34 H           2.9708    4.3288    1.2438 H       1  UNL1        0.0350
     35 H           0.6638    3.0196    1.7547 H       1  UNL1        0.0581
     36 H           0.5770   -2.5299   -0.5497 H       1  UNL1        0.1659
     37 H          -2.1469   -2.5373   -0.3587 H       1  UNL1        0.0645
     38 H          -4.8219   -2.0659   -2.0122 H       1  UNL1        0.0639
     39 H          -7.1505   -2.9154   -0.9116 H       1  UNL1        0.0633
     40 H          -7.0866   -2.1115    1.6913 H       1  UNL1        0.0807
     41 H          -4.9007   -0.9149    2.0309 H       1  UNL1        0.1653
     42 H          -5.0519    1.3157    0.0992 H       1  UNL1        0.0624
     43 H          -4.7001    3.7299    0.1767 H       1  UNL1        0.0618
     44 H          -2.4046    4.6626    0.0674 H       1  UNL1        0.0618
     45 H          -0.4807    3.1675   -0.0913 H       1  UNL1        0.0624
     46 H           2.0726   -3.5707   -1.6257 H       1  UNL1        0.1036
     47 H           6.1439   -3.8805   -1.9483 H       1  UNL1        0.1035
     48 H           7.0125   -1.2724   -0.8337 H       1  UNL1        0.0625
     49 H           5.9673    0.7902    0.1185 H       1  UNL1        0.0624
     50 H           4.9846    2.5370    1.2396 H       1  UNL1        0.0581
@<TRIPOS>BOND
     1     1     2    1
     2     2     3    2
     3     3     4   ar
     4     4     5   ar
     5     5     6   ar
     6     6     7   ar
     7     7     8   ar
     8     8     9   ar
     9     9    10    1
    10    10    11   ar
    11    11    12   ar
    12    12    13   ar
    13    13    14   ar
    14     9    15   ar
    15    15    16   ar
    16    16    17   ar
    17    17    18   ar
    18    18    19   ar
    19    19    20   ar
    20    20    21   ar
    21     5    22   ar
    22    22    23   ar
    23    23    24   ar
    24    24    25   ar
    25    25    26   ar
    26    26    27   ar
    27    27    28   ar
    28    28    29   ar
    29    29    30   ar
    30    30    31   ar
    31    31    32    2
    32    32     1    1
    33    31     3   ar
    34    21     4   ar
    35    30    22   ar
    36    21     7   ar
    37    27    23   ar
    38    14    10   ar
    39    20    15   ar
    40     1    33    1
    41     1    34    1
    42     2    35    1
    43     6    36    1
    44     8    37    1
    45    11    38    1
    46    12    39    1
    47    13    40    1
    48    14    41    1
    49    16    42    1
    50    17    43    1
    51    18    44    1
    52    19    45    1
    53    24    46    1
    54    26    47    1
    55    28    48    1
    56    29    49    1
    57    32    50    1
