@<TRIPOS>MOLECULE
*****
 41 47 0 0 0
SMALL
GASTEIGER

@<TRIPOS>ATOM
      1 C          -2.6766    2.2597   -2.8095 C.3     1  UNL1       -0.0148
      2 C          -1.4870    1.6673   -2.1139 C.2     1  UNL1       -0.0719
      3 C          -1.9028    0.9270   -1.0788 C.ar    1  UNL1       -0.0110
      4 C          -1.1961    0.1696   -0.1184 C.ar    1  UNL1        0.0220
      5 C          -1.8860   -0.5172    0.8682 C.ar    1  UNL1        0.0564
      6 N          -0.9714   -1.1622    1.6587 N.ar    1  UNL1       -0.3532
      7 C           0.2904   -0.8861    1.1762 C.ar    1  UNL1        0.0553
      8 C           1.6285   -1.2216    1.5121 C.ar    1  UNL1       -0.0224
      9 C           2.5264   -0.6291    0.6347 C.ar    1  UNL1        0.0291
     10 S           1.7281    0.3190   -0.5743 S.2     1  UNL1       -0.0855
     11 C           0.1826   -0.0715    0.0869 C.ar    1  UNL1        0.0458
     12 C           3.9716   -0.7421    0.6615 C.ar    1  UNL1        0.0352
     13 S           4.8039   -1.6917    1.8812 S.2     1  UNL1       -0.0934
     14 C           6.3825   -1.3424    1.2669 C.ar    1  UNL1        0.0002
     15 C           6.2370   -0.5442    0.1930 C.ar    1  UNL1        0.0542
     16 N           7.2420   -0.0408   -0.5807 N.ar    1  UNL1       -0.3602
     17 C           6.5211    0.6931   -1.5167 C.ar    1  UNL1        0.0028
     18 C           5.1325    0.6093   -1.2807 C.ar    1  UNL1       -0.0355
     19 C           4.9379   -0.2184   -0.1364 C.ar    1  UNL1        0.0149
     20 C          -3.3550   -0.5238    1.0052 C.ar    1  UNL1        0.0066
     21 C          -4.0147   -1.2303    2.0160 C.ar    1  UNL1       -0.0520
     22 C          -5.4087   -1.1988    2.0951 C.ar    1  UNL1       -0.0611
     23 C          -6.1510   -0.4649    1.1696 C.ar    1  UNL1       -0.0611
     24 C          -5.5080    0.2463    0.1539 C.ar    1  UNL1       -0.0534
     25 C          -4.1121    0.2281    0.0568 C.ar    1  UNL1       -0.0085
     26 C          -3.3691    0.9626   -0.9990 C.ar    1  UNL1       -0.0134
     27 C          -3.8293    1.7339   -1.9996 C.2     1  UNL1       -0.0719
     28 H          -2.7371    1.9174   -3.8468 H       1  UNL1        0.0350
     29 H          -2.6445    3.3528   -2.7830 H       1  UNL1        0.0350
     30 H          -0.4635    1.8246   -2.4153 H       1  UNL1        0.0581
     31 H          -1.1444   -1.7483    2.4644 H       1  UNL1        0.1659
     32 H           1.9055   -1.8562    2.3439 H       1  UNL1        0.0650
     33 H           7.2839   -1.7320    1.7182 H       1  UNL1        0.0714
     34 H           8.2395   -0.1810   -0.4775 H       1  UNL1        0.1653
     35 H           7.0558    1.2276   -2.2915 H       1  UNL1        0.0807
     36 H           4.3760    1.0981   -1.8800 H       1  UNL1        0.0639
     37 H          -3.4636   -1.8094    2.7494 H       1  UNL1        0.0624
     38 H          -5.9188   -1.7490    2.8820 H       1  UNL1        0.0618
     39 H          -7.2359   -0.4458    1.2385 H       1  UNL1        0.0618
     40 H          -6.1089    0.8096   -0.5536 H       1  UNL1        0.0624
     41 H          -4.8610    1.9608   -2.2160 H       1  UNL1        0.0581
@<TRIPOS>BOND
     1     1     2    1
     2     2     3    2
     3     3     4   ar
     4     4     5   ar
     5     5     6   ar
     6     6     7   ar
     7     7     8   ar
     8     8     9   ar
     9     9    10   ar
    10    10    11   ar
    11     9    12    1
    12    12    13   ar
    13    13    14   ar
    14    14    15   ar
    15    15    16   ar
    16    16    17   ar
    17    17    18   ar
    18    18    19   ar
    19     5    20   ar
    20    20    21   ar
    21    21    22   ar
    22    22    23   ar
    23    23    24   ar
    24    24    25   ar
    25    25    26   ar
    26    26    27    2
    27    27     1    1
    28    26     3   ar
    29    11     4   ar
    30    19    12   ar
    31    25    20   ar
    32    11     7   ar
    33    19    15   ar
    34     1    28    1
    35     1    29    1
    36     2    30    1
    37     6    31    1
    38     8    32    1
    39    14    33    1
    40    16    34    1
    41    17    35    1
    42    18    36    1
    43    21    37    1
    44    22    38    1
    45    23    39    1
    46    24    40    1
    47    27    41    1
