@<TRIPOS>MOLECULE
*****
 51 58 0 0 0
SMALL
GASTEIGER

@<TRIPOS>ATOM
      1 C           0.7358    3.9080   -0.0967 C.3     1  UNL1        0.0000
      2 C           1.8054    2.8677    0.0278 C.2     1  UNL1        0.0000
      3 C           1.2718    1.6412   -0.0648 C.ar    1  UNL1        0.0000
      4 C           1.8556    0.3435    0.0504 C.ar    1  UNL1        0.0000
      5 C           0.9866   -0.7493    0.1671 C.ar    1  UNL1        0.0000
      6 N           1.7521   -1.8415    0.4906 N.ar    1  UNL1        0.0000
      7 C           3.0723   -1.4985    0.4466 C.ar    1  UNL1        0.0000
      8 C           4.1065   -2.4221    0.7526 C.ar    1  UNL1        0.0000
      9 C           5.3711   -1.9633    0.6622 C.ar    1  UNL1        0.0000
     10 C           5.6284   -0.5956    0.2139 C.ar    1  UNL1        0.0000
     11 C           6.8634   -0.0998    0.0039 C.2     1  UNL1        0.0000
     12 SI          6.7723    1.6239   -0.7063 Si      1  UNL1        0.0000
     13 C           4.9102    1.5027   -0.6665 C.2     1  UNL1        0.0000
     14 C           4.5049    0.3417   -0.1202 C.ar    1  UNL1        0.0000
     15 C           3.1767   -0.1632    0.0791 C.ar    1  UNL1        0.0000
     16 C          -0.4689   -0.6792    0.0367 C.ar    1  UNL1        0.0000
     17 C          -1.3946   -1.7335    0.0232 C.ar    1  UNL1        0.0000
     18 C          -1.1785   -3.0895    0.1086 C.ar    1  UNL1        0.0000
     19 N          -2.4072   -3.7166    0.0622 N.ar    1  UNL1        0.0000
     20 C          -3.4098   -2.7871   -0.0735 C.ar    1  UNL1        0.0000
     21 C          -2.8151   -1.5493   -0.1291 C.ar    1  UNL1        0.0000
     22 C          -3.4645   -0.3169   -0.2897 C.ar    1  UNL1        0.0000
     23 C          -2.5289    0.7527   -0.2928 C.ar    1  UNL1        0.0000
     24 C          -1.1046    0.5987   -0.1464 C.ar    1  UNL1        0.0000
     25 C          -0.1935    1.7741   -0.1697 C.ar    1  UNL1        0.0000
     26 C          -0.5085    3.0813   -0.2090 C.2     1  UNL1        0.0000
     27 C          -4.9009   -0.1400   -0.4469 C.ar    1  UNL1        0.0000
     28 C          -5.6455    0.6330    0.4516 C.ar    1  UNL1        0.0000
     29 C          -7.0184    0.7918    0.2717 C.ar    1  UNL1        0.0000
     30 C          -7.6147    0.1714   -0.8128 C.ar    1  UNL1        0.0000
     31 N          -6.9411   -0.5779   -1.7094 N.ar    1  UNL1        0.0000
     32 C          -5.6066   -0.7102   -1.5068 C.ar    1  UNL1        0.0000
     33 H           0.7027    4.5443    0.7926 H       1  UNL1        0.0000
     34 H           0.8848    4.5261   -0.9867 H       1  UNL1        0.0000
     35 H           2.8360    3.1074    0.2191 H       1  UNL1        0.0000
     36 H           1.4002   -2.7512    0.7396 H       1  UNL1        0.0000
     37 H           3.8935   -3.4385    1.0629 H       1  UNL1        0.0000
     38 H           6.2138   -2.6071    0.8879 H       1  UNL1        0.0000
     39 H           7.8056   -0.6022    0.1519 H       1  UNL1        0.0000
     40 H           7.3104    1.6959   -2.0863 H       1  UNL1        0.0000
     41 H           7.2945    2.6500    0.2287 H       1  UNL1        0.0000
     42 H           4.3033    2.2849   -1.0836 H       1  UNL1        0.0000
     43 H          -0.2936   -3.6992    0.1880 H       1  UNL1        0.0000
     44 H          -2.5496   -4.7175    0.1112 H       1  UNL1        0.0000
     45 H          -4.4436   -3.1030   -0.1246 H       1  UNL1        0.0000
     46 H          -2.9285    1.7568   -0.4328 H       1  UNL1        0.0000
     47 H          -1.4962    3.5103   -0.2623 H       1  UNL1        0.0000
     48 H          -5.1600    1.1062    1.3020 H       1  UNL1        0.0000
     49 H          -7.6072    1.3835    0.9633 H       1  UNL1        0.0000
     50 H          -8.6814    0.2645   -0.9946 H       1  UNL1        0.0000
     51 H          -5.0966   -1.3095   -2.2577 H       1  UNL1        0.0000
@<TRIPOS>BOND
     1     1     2    1
     2     2     3    2
     3     3     4   ar
     4     4     5   ar
     5     5     6   ar
     6     6     7   ar
     7     7     8   ar
     8     8     9   ar
     9     9    10   ar
    10    10    11    2
    11    11    12    1
    12    12    13    1
    13    13    14    2
    14    14    15   ar
    15     5    16   ar
    16    16    17   ar
    17    17    18   ar
    18    18    19   ar
    19    19    20   ar
    20    20    21   ar
    21    21    22   ar
    22    22    23   ar
    23    23    24   ar
    24    24    25   ar
    25    25    26    2
    26    22    27    1
    27    27    28   ar
    28    28    29   ar
    29    29    30   ar
    30    30    31   ar
    31    31    32   ar
    32    26     1    1
    33    32    27   ar
    34    25     3   ar
    35    15     4   ar
    36    24    16   ar
    37    15     7   ar
    38    21    17   ar
    39    14    10   ar
    40     1    33    1
    41     1    34    1
    42     2    35    1
    43     6    36    1
    44     8    37    1
    45     9    38    1
    46    11    39    1
    47    12    40    1
    48    12    41    1
    49    13    42    1
    50    18    43    1
    51    19    44    1
    52    20    45    1
    53    23    46    1
    54    26    47    1
    55    28    48    1
    56    29    49    1
    57    30    50    1
    58    32    51    1
