@<TRIPOS>MOLECULE
*****
 49 56 0 0 0
SMALL
GASTEIGER

@<TRIPOS>ATOM
      1 C           1.2193   -3.8510   -1.2988 C.3     1  UNL1       -0.0148
      2 C           2.1968   -2.7374   -1.0726 C.2     1  UNL1       -0.0719
      3 C           1.5653   -1.6653   -0.5769 C.ar    1  UNL1       -0.0114
      4 C           2.0153   -0.3737   -0.1899 C.ar    1  UNL1        0.0161
      5 C           1.0474    0.6283   -0.0303 C.ar    1  UNL1        0.0565
      6 N           1.6958    1.7328    0.4805 N.ar    1  UNL1       -0.3536
      7 C           3.0590    1.5366    0.5337 C.ar    1  UNL1        0.0482
      8 C           4.0955    2.4246    0.9320 C.ar    1  UNL1       -0.0371
      9 C           5.4328    1.9920    1.0069 C.ar    1  UNL1       -0.0490
     10 C           5.5599    0.6464    0.7003 C.ar    1  UNL1        0.0206
     11 C           6.7310   -0.0685    0.7576 C.ar    1  UNL1        0.0994
     12 O           6.4923   -1.3832    0.4529 O.2     1  UNL1       -0.4698
     13 C           5.1485   -1.5085    0.1931 C.ar    1  UNL1        0.1000
     14 C           4.5753   -0.2807    0.3092 C.ar    1  UNL1        0.0296
     15 C           3.2372    0.2047    0.1742 C.ar    1  UNL1        0.0187
     16 C          -0.4327    0.4486   -0.1481 C.ar    1  UNL1        0.0144
     17 C          -1.3931    1.5069   -0.1304 C.ar    1  UNL1       -0.0075
     18 C          -1.0608    2.8749   -0.3189 C.ar    1  UNL1       -0.0534
     19 C          -1.9986    3.9029   -0.2213 C.ar    1  UNL1       -0.0611
     20 C          -3.3164    3.5957    0.0503 C.ar    1  UNL1       -0.0611
     21 C          -3.6961    2.2602    0.1681 C.ar    1  UNL1       -0.0533
     22 C          -2.7744    1.1886    0.0413 C.ar    1  UNL1       -0.0065
     23 C          -3.1899   -0.1756    0.0791 C.ar    1  UNL1        0.0275
     24 C          -2.2300   -1.1907   -0.0862 C.ar    1  UNL1       -0.0421
     25 C          -0.8753   -0.8994   -0.2265 C.ar    1  UNL1       -0.0072
     26 C           0.1258   -1.9502   -0.5217 C.ar    1  UNL1       -0.0133
     27 C          -0.0841   -3.2189   -0.9161 C.2     1  UNL1       -0.0719
     28 C          -4.5937   -0.5957    0.2329 C.ar    1  UNL1        0.1636
     29 N          -5.4832   -0.1494   -0.6596 N.ar    1  UNL1       -0.2160
     30 C          -6.7185   -0.6111   -0.4851 C.ar    1  UNL1        0.1200
     31 N          -7.1148   -1.4479    0.4702 N.ar    1  UNL1       -0.2241
     32 C          -6.1396   -1.8302    1.2905 C.ar    1  UNL1        0.1200
     33 N          -4.8660   -1.4523    1.2233 N.ar    1  UNL1       -0.2160
     34 H           1.2114   -4.1575   -2.3490 H       1  UNL1        0.0350
     35 H           1.4453   -4.7131   -0.6646 H       1  UNL1        0.0350
     36 H           3.2380   -2.8182   -1.3233 H       1  UNL1        0.0581
     37 H           1.2431    2.5603    0.8366 H       1  UNL1        0.1659
     38 H           3.8554    3.4523    1.1964 H       1  UNL1        0.0638
     39 H           6.2421    2.6414    1.3122 H       1  UNL1        0.0625
     40 H           7.7567    0.1696    1.0009 H       1  UNL1        0.1035
     41 H           4.8265   -2.5138   -0.0159 H       1  UNL1        0.1036
     42 H          -0.0581    3.1671   -0.6155 H       1  UNL1        0.0624
     43 H          -1.6964    4.9358   -0.3719 H       1  UNL1        0.0618
     44 H          -4.0599    4.3835    0.1364 H       1  UNL1        0.0618
     45 H          -4.7522    2.0670    0.3473 H       1  UNL1        0.0624
     46 H          -2.5658   -2.2259   -0.1050 H       1  UNL1        0.0631
     47 H          -1.0362   -3.7122   -1.0320 H       1  UNL1        0.0581
     48 H          -7.4729   -0.2733   -1.1876 H       1  UNL1        0.1048
     49 H          -6.4071   -2.5163    2.0870 H       1  UNL1        0.1048
@<TRIPOS>BOND
     1     1     2    1
     2     2     3    2
     3     3     4   ar
     4     4     5   ar
     5     5     6   ar
     6     6     7   ar
     7     7     8   ar
     8     8     9   ar
     9     9    10   ar
    10    10    11   ar
    11    11    12   ar
    12    12    13   ar
    13    13    14   ar
    14    14    15   ar
    15     5    16   ar
    16    16    17   ar
    17    17    18   ar
    18    18    19   ar
    19    19    20   ar
    20    20    21   ar
    21    21    22   ar
    22    22    23   ar
    23    23    24   ar
    24    24    25   ar
    25    25    26   ar
    26    26    27    2
    27    23    28    1
    28    28    29   ar
    29    29    30   ar
    30    30    31   ar
    31    31    32   ar
    32    32    33   ar
    33    27     1    1
    34    33    28   ar
    35    26     3   ar
    36    15     4   ar
    37    25    16   ar
    38    15     7   ar
    39    22    17   ar
    40    14    10   ar
    41     1    34    1
    42     1    35    1
    43     2    36    1
    44     6    37    1
    45     8    38    1
    46     9    39    1
    47    11    40    1
    48    13    41    1
    49    18    42    1
    50    19    43    1
    51    20    44    1
    52    21    45    1
    53    24    46    1
    54    27    47    1
    55    30    48    1
    56    32    49    1
