@<TRIPOS>MOLECULE
*****
 46 53 0 0 0
SMALL
GASTEIGER

@<TRIPOS>ATOM
      1 C          -1.9389   -2.3044    3.1332 C.3     1  UNL1        0.0000
      2 C          -2.9045   -1.4390    2.3833 C.2     1  UNL1        0.0000
      3 C          -2.2868   -0.8181    1.3686 C.ar    1  UNL1        0.0000
      4 C          -2.7426    0.0945    0.3681 C.ar    1  UNL1        0.0000
      5 C          -1.8021    0.5503   -0.5608 C.ar    1  UNL1        0.0000
      6 N          -2.4409    1.4025   -1.4285 N.ar    1  UNL1        0.0000
      7 C          -3.7742    1.5288   -1.0983 C.ar    1  UNL1        0.0000
      8 C          -4.7805    2.2946   -1.7148 C.ar    1  UNL1        0.0000
      9 C          -6.0835    2.2703   -1.2010 C.ar    1  UNL1        0.0000
     10 C          -6.3095    1.4591   -0.0691 C.ar    1  UNL1        0.0000
     11 N          -7.4949    1.3159    0.5563 N.ar    1  UNL1        0.0000
     12 S          -7.2399    0.2599    1.8267 S.2     1  UNL1        0.0000
     13 N          -5.6116   -0.0606    1.6375 N.ar    1  UNL1        0.0000
     14 C          -5.2757    0.6590    0.5807 C.ar    1  UNL1        0.0000
     15 C          -3.9537    0.7173    0.0148 C.ar    1  UNL1        0.0000
     16 C          -0.3749    0.1810   -0.6058 C.ar    1  UNL1        0.0000
     17 C           0.5080    0.6863   -1.5667 C.ar    1  UNL1        0.0000
     18 C           1.8521    0.3019   -1.5577 C.ar    1  UNL1        0.0000
     19 C           2.3329   -0.5930   -0.5945 C.ar    1  UNL1        0.0000
     20 C           1.4537   -1.1018    0.3704 C.ar    1  UNL1        0.0000
     21 C           0.1038   -0.7248    0.3763 C.ar    1  UNL1        0.0000
     22 C          -0.8687   -1.2268    1.3721 C.ar    1  UNL1        0.0000
     23 C          -0.6601   -2.0838    2.3868 C.2     1  UNL1        0.0000
     24 C           3.7426   -0.9707   -0.5877 C.ar    1  UNL1        0.0000
     25 S           4.2067   -2.5976   -0.9537 S.2     1  UNL1        0.0000
     26 C           5.8926   -2.2589   -0.7740 C.ar    1  UNL1        0.0000
     27 C           6.0882   -0.9455   -0.4435 C.ar    1  UNL1        0.0000
     28 C           7.2924   -0.2152   -0.1915 C.2     1  UNL1        0.0000
     29 C           7.1108    1.0867    0.1218 C.2     1  UNL1        0.0000
     30 SI          5.2492    1.5491    0.1314 Si      1  UNL1        0.0000
     31 C           4.8640   -0.2331   -0.3432 C.ar    1  UNL1        0.0000
     32 H          -2.2407   -3.3552    3.0967 H       1  UNL1        0.0000
     33 H          -1.8482   -1.9830    4.1749 H       1  UNL1        0.0000
     34 H          -3.9399   -1.3644    2.6620 H       1  UNL1        0.0000
     35 H          -2.0043    1.8764   -2.2051 H       1  UNL1        0.0000
     36 H          -4.5577    2.9055   -2.5865 H       1  UNL1        0.0000
     37 H          -6.8857    2.8460   -1.6476 H       1  UNL1        0.0000
     38 H           0.1767    1.3777   -2.3341 H       1  UNL1        0.0000
     39 H           2.5228    0.6976   -2.3179 H       1  UNL1        0.0000
     40 H           1.8342   -1.7904    1.1200 H       1  UNL1        0.0000
     41 H           0.2701   -2.5606    2.6520 H       1  UNL1        0.0000
     42 H           6.6229   -3.0422   -0.9202 H       1  UNL1        0.0000
     43 H           8.2695   -0.6808   -0.2495 H       1  UNL1        0.0000
     44 H           7.8639    1.8233    0.3503 H       1  UNL1        0.0000
     45 H           4.9480    2.5351   -0.9376 H       1  UNL1        0.0000
     46 H           4.8142    1.9310    1.4977 H       1  UNL1        0.0000
@<TRIPOS>BOND
     1     1     2    1
     2     2     3    2
     3     3     4   ar
     4     4     5   ar
     5     5     6   ar
     6     6     7   ar
     7     7     8   ar
     8     8     9   ar
     9     9    10   ar
    10    10    11   ar
    11    11    12   ar
    12    12    13   ar
    13    13    14   ar
    14    14    15   ar
    15     5    16   ar
    16    16    17   ar
    17    17    18   ar
    18    18    19   ar
    19    19    20   ar
    20    20    21   ar
    21    21    22   ar
    22    22    23    2
    23    19    24    1
    24    24    25   ar
    25    25    26   ar
    26    26    27   ar
    27    27    28    1
    28    28    29    2
    29    29    30    1
    30    30    31    1
    31    23     1    1
    32    31    24   ar
    33    22     3   ar
    34    31    27   ar
    35    15     4   ar
    36    21    16   ar
    37    15     7   ar
    38    14    10   ar
    39     1    32    1
    40     1    33    1
    41     2    34    1
    42     6    35    1
    43     8    36    1
    44     9    37    1
    45    17    38    1
    46    18    39    1
    47    20    40    1
    48    23    41    1
    49    26    42    1
    50    28    43    1
    51    29    44    1
    52    30    45    1
    53    30    46    1
