@<TRIPOS>MOLECULE
*****
 43 49 0 0 0
SMALL
GASTEIGER

@<TRIPOS>ATOM
      1 C          -0.2124    3.3835   -1.1774 C.3     1  UNL1       -0.0148
      2 C          -1.1959    2.3982   -0.6164 C.2     1  UNL1       -0.0718
      3 C          -0.5757    1.2536   -0.2978 C.ar    1  UNL1       -0.0097
      4 C          -1.0325    0.0419    0.3053 C.ar    1  UNL1        0.0380
      5 C          -0.0487   -0.8260    0.7520 C.ar    1  UNL1        0.1626
      6 O          -0.5802   -1.8642    1.4316 O.2     1  UNL1       -0.4526
      7 C          -1.9304   -1.7019    1.3718 C.ar    1  UNL1        0.1370
      8 C          -2.8320   -2.5601    1.9944 C.ar    1  UNL1       -0.0181
      9 C          -4.1876   -2.2890    1.8200 C.ar    1  UNL1       -0.0505
     10 C          -4.6233   -1.2408    1.0009 C.ar    1  UNL1       -0.0171
     11 C          -5.9968   -1.0363    0.7970 C.ar    1  UNL1       -0.0540
     12 C          -6.4541   -0.0425   -0.0679 C.ar    1  UNL1       -0.0612
     13 C          -5.5431    0.7477   -0.7581 C.ar    1  UNL1       -0.0611
     14 C          -4.1721    0.5685   -0.5612 C.ar    1  UNL1       -0.0533
     15 C          -3.6826   -0.3934    0.3466 C.ar    1  UNL1       -0.0065
     16 C          -2.2839   -0.5855    0.6014 C.ar    1  UNL1        0.0362
     17 C           1.3935   -0.7137    0.5727 C.ar    1  UNL1        0.1143
     18 N           2.1797   -1.7077    1.0372 N.ar    1  UNL1       -0.2506
     19 C           3.5098   -1.5695    0.8074 C.ar    1  UNL1        0.0381
     20 C           4.1075   -0.4970    0.1355 C.ar    1  UNL1        0.0258
     21 C           3.2497    0.5134   -0.3293 C.ar    1  UNL1       -0.0407
     22 C           1.8717    0.4188   -0.1146 C.ar    1  UNL1        0.0121
     23 C           0.8758    1.4317   -0.5318 C.ar    1  UNL1       -0.0118
     24 C           1.0892    2.6482   -1.0610 C.2     1  UNL1       -0.0719
     25 C           5.5700   -0.4906   -0.0386 C.ar    1  UNL1        0.1097
     26 N           6.3651   -1.4445    0.4120 N.ar    1  UNL1       -0.2473
     27 C           7.6810   -1.1685    0.1008 C.ar    1  UNL1        0.0354
     28 C           7.8919    0.0014   -0.5908 C.ar    1  UNL1       -0.0042
     29 S           6.3957    0.7844   -0.8621 S.2     1  UNL1       -0.0756
     30 H          -0.1962    4.3013   -0.5821 H       1  UNL1        0.0350
     31 H          -0.4423    3.6237   -2.2194 H       1  UNL1        0.0350
     32 H          -2.2328    2.6422   -0.4613 H       1  UNL1        0.0581
     33 H          -2.4861   -3.3959    2.5912 H       1  UNL1        0.0655
     34 H          -4.9096   -2.9404    2.3094 H       1  UNL1        0.0625
     35 H          -6.7283   -1.6647    1.3013 H       1  UNL1        0.0624
     36 H          -7.5213    0.0955   -0.2208 H       1  UNL1        0.0618
     37 H          -5.8966    1.4958   -1.4629 H       1  UNL1        0.0618
     38 H          -3.4943    1.1525   -1.1691 H       1  UNL1        0.0624
     39 H           4.1128   -2.3888    1.1969 H       1  UNL1        0.0836
     40 H           3.6438    1.3759   -0.8565 H       1  UNL1        0.0631
     41 H           2.0420    3.0863   -1.3149 H       1  UNL1        0.0581
     42 H           8.4545   -1.8629    0.4060 H       1  UNL1        0.0835
     43 H           8.8254    0.4195   -0.9384 H       1  UNL1        0.0709
@<TRIPOS>BOND
     1     1     2    1
     2     2     3    2
     3     3     4   ar
     4     4     5   ar
     5     5     6   ar
     6     6     7   ar
     7     7     8   ar
     8     8     9   ar
     9     9    10   ar
    10    10    11   ar
    11    11    12   ar
    12    12    13   ar
    13    13    14   ar
    14    14    15   ar
    15    15    16   ar
    16     5    17   ar
    17    17    18   ar
    18    18    19   ar
    19    19    20   ar
    20    20    21   ar
    21    21    22   ar
    22    22    23   ar
    23    23    24    2
    24    20    25    1
    25    25    26   ar
    26    26    27   ar
    27    27    28   ar
    28    28    29   ar
    29    24     1    1
    30    29    25   ar
    31    23     3   ar
    32    16     4   ar
    33    22    17   ar
    34    16     7   ar
    35    15    10   ar
    36     1    30    1
    37     1    31    1
    38     2    32    1
    39     8    33    1
    40     9    34    1
    41    11    35    1
    42    12    36    1
    43    13    37    1
    44    14    38    1
    45    19    39    1
    46    21    40    1
    47    24    41    1
    48    27    42    1
    49    28    43    1
