@<TRIPOS>MOLECULE
*****
 42 48 0 0 0
SMALL
GASTEIGER

@<TRIPOS>ATOM
      1 C          -1.0609    2.6797   -2.4194 C.3     1  UNL1       -0.0148
      2 C          -1.9632    1.6150   -1.8678 C.2     1  UNL1       -0.0718
      3 C          -1.2829    0.8167   -1.0350 C.ar    1  UNL1       -0.0098
      4 C          -1.6548   -0.3196   -0.2631 C.ar    1  UNL1        0.0366
      5 C          -0.6529   -0.9045    0.5060 C.ar    1  UNL1        0.1445
      6 O          -1.0990   -1.9797    1.2084 O.2     1  UNL1       -0.4542
      7 C          -2.4252   -2.1124    0.8989 C.ar    1  UNL1        0.1370
      8 C          -3.2805   -3.1138    1.4158 C.ar    1  UNL1       -0.0180
      9 C          -4.6334   -3.1576    1.0276 C.ar    1  UNL1       -0.0475
     10 C          -4.9559   -2.1448    0.1335 C.ar    1  UNL1        0.0207
     11 C          -6.1980   -1.9408   -0.4151 C.ar    1  UNL1        0.0994
     12 O          -6.1668   -0.8578   -1.2545 O.2     1  UNL1       -0.4698
     13 C          -4.8853   -0.3601   -1.2436 C.ar    1  UNL1        0.1001
     14 C          -4.1396   -1.1290   -0.4069 C.ar    1  UNL1        0.0312
     15 C          -2.7750   -1.1073    0.0031 C.ar    1  UNL1        0.0392
     16 C           0.7442   -0.4983    0.6225 C.ar    1  UNL1        0.0256
     17 C           1.6646   -1.1646    1.4294 C.ar    1  UNL1       -0.0498
     18 C           2.9889   -0.7174    1.4907 C.ar    1  UNL1       -0.0503
     19 C           3.4317    0.4005    0.7536 C.ar    1  UNL1        0.0198
     20 C           2.4823    1.0603   -0.0571 C.ar    1  UNL1       -0.0426
     21 C           1.1499    0.6288   -0.1331 C.ar    1  UNL1       -0.0063
     22 C           0.1185    1.2917   -0.9713 C.ar    1  UNL1       -0.0133
     23 C           0.2508    2.3656   -1.7683 C.2     1  UNL1       -0.0719
     24 C           4.8354    0.8637    0.8269 C.ar    1  UNL1        0.1630
     25 N           5.1798    1.9318    0.0977 N.ar    1  UNL1       -0.2160
     26 C           6.4551    2.2957    0.2088 C.ar    1  UNL1        0.1200
     27 N           7.3776    1.7022    0.9599 N.ar    1  UNL1       -0.2241
     28 C           6.9217    0.6540    1.6389 C.ar    1  UNL1        0.1200
     29 N           5.6760    0.1868    1.6178 N.ar    1  UNL1       -0.2160
     30 H          -1.4118    3.6771   -2.1385 H       1  UNL1        0.0350
     31 H          -0.9878    2.6079   -3.5086 H       1  UNL1        0.0350
     32 H          -2.9989    1.5506   -2.1367 H       1  UNL1        0.0581
     33 H          -2.8850   -3.8468    2.1131 H       1  UNL1        0.0655
     34 H          -5.3227   -3.9051    1.3975 H       1  UNL1        0.0626
     35 H          -7.1575   -2.4315   -0.3309 H       1  UNL1        0.1035
     36 H          -4.7381    0.4998   -1.8726 H       1  UNL1        0.1036
     37 H           1.3633   -2.0308    2.0134 H       1  UNL1        0.0625
     38 H           3.6855   -1.2587    2.1303 H       1  UNL1        0.0625
     39 H           2.7973    1.9257   -0.6362 H       1  UNL1        0.0631
     40 H           1.1490    2.9391   -1.9370 H       1  UNL1        0.0581
     41 H           6.7715    3.1581   -0.3681 H       1  UNL1        0.1048
     42 H           7.6319    0.1300    2.2697 H       1  UNL1        0.1048
@<TRIPOS>BOND
     1     1     2    1
     2     2     3    2
     3     3     4   ar
     4     4     5   ar
     5     5     6   ar
     6     6     7   ar
     7     7     8   ar
     8     8     9   ar
     9     9    10   ar
    10    10    11   ar
    11    11    12   ar
    12    12    13   ar
    13    13    14   ar
    14    14    15   ar
    15     5    16   ar
    16    16    17   ar
    17    17    18   ar
    18    18    19   ar
    19    19    20   ar
    20    20    21   ar
    21    21    22   ar
    22    22    23    2
    23    19    24    1
    24    24    25   ar
    25    25    26   ar
    26    26    27   ar
    27    27    28   ar
    28    28    29   ar
    29    23     1    1
    30    29    24   ar
    31    22     3   ar
    32    15     4   ar
    33    21    16   ar
    34    15     7   ar
    35    14    10   ar
    36     1    30    1
    37     1    31    1
    38     2    32    1
    39     8    33    1
    40     9    34    1
    41    11    35    1
    42    13    36    1
    43    17    37    1
    44    18    38    1
    45    20    39    1
    46    23    40    1
    47    26    41    1
    48    28    42    1
