@<TRIPOS>MOLECULE
*****
 47 54 0 0 0
SMALL
GASTEIGER

@<TRIPOS>ATOM
      1 C          -2.2041    3.6399    1.0877 C.3     1  UNL1        0.0000
      2 C          -3.2122    2.5720    0.7803 C.2     1  UNL1        0.0000
      3 C          -2.5926    1.4621    0.3590 C.ar    1  UNL1        0.0000
      4 C          -3.0728    0.1870   -0.0516 C.ar    1  UNL1        0.0000
      5 C          -2.1220   -0.7531   -0.4334 C.ar    1  UNL1        0.0000
      6 O          -2.6912   -1.9325   -0.8052 O.2     1  UNL1        0.0000
      7 C          -4.0427   -1.7656   -0.6657 C.ar    1  UNL1        0.0000
      8 C          -5.0050   -2.7443   -0.9446 C.ar    1  UNL1        0.0000
      9 C          -6.3598   -2.4303   -0.7542 C.ar    1  UNL1        0.0000
     10 C          -6.6611   -1.1287   -0.2874 C.ar    1  UNL1        0.0000
     11 N          -7.8971   -0.6501   -0.0474 N.ar    1  UNL1        0.0000
     12 S          -7.7086    0.9258    0.4841 S.2     1  UNL1        0.0000
     13 N          -6.0414    1.0731    0.4338 N.ar    1  UNL1        0.0000
     14 C          -5.6506   -0.1137    0.0011 C.ar    1  UNL1        0.0000
     15 C          -4.2874   -0.4827   -0.2087 C.ar    1  UNL1        0.0000
     16 C          -0.6730   -0.5840   -0.4633 C.ar    1  UNL1        0.0000
     17 N           0.0845   -1.6298   -0.8669 N.ar    1  UNL1        0.0000
     18 C           1.4216   -1.4202   -0.8749 C.ar    1  UNL1        0.0000
     19 C           2.0351   -0.2224   -0.5045 C.ar    1  UNL1        0.0000
     20 C           1.2214    0.8384   -0.0888 C.ar    1  UNL1        0.0000
     21 C          -0.1622    0.6704   -0.0630 C.ar    1  UNL1        0.0000
     22 C          -1.1339    1.7068    0.3543 C.ar    1  UNL1        0.0000
     23 C          -0.9022    2.9619    0.7738 C.2     1  UNL1        0.0000
     24 C           3.4988   -0.0869   -0.5329 C.ar    1  UNL1        0.0000
     25 C           4.0577    0.5540   -1.5871 C.ar    1  UNL1        0.0000
     26 C           5.5013    0.7410   -1.7247 C.ar    1  UNL1        0.0000
     27 C           6.3729    0.2837   -0.8065 C.ar    1  UNL1        0.0000
     28 C           5.8601   -0.4137    0.3550 C.ar    1  UNL1        0.0000
     29 C           6.6108   -0.9205    1.3502 C.2     1  UNL1        0.0000
     30 SI          5.5303   -1.7324    2.6461 Si      1  UNL1        0.0000
     31 C           4.0332   -1.2638    1.6228 C.2     1  UNL1        0.0000
     32 C           4.3970   -0.6067    0.5029 C.ar    1  UNL1        0.0000
     33 H          -2.2508    3.9342    2.1403 H       1  UNL1        0.0000
     34 H          -2.3540    4.5176    0.4522 H       1  UNL1        0.0000
     35 H          -4.2731    2.7182    0.8960 H       1  UNL1        0.0000
     36 H          -4.7021   -3.7242   -1.3008 H       1  UNL1        0.0000
     37 H          -7.1452   -3.1502   -0.9547 H       1  UNL1        0.0000
     38 H           2.0129   -2.2737   -1.1988 H       1  UNL1        0.0000
     39 H           1.6753    1.7772    0.2143 H       1  UNL1        0.0000
     40 H           0.0588    3.4409    0.8812 H       1  UNL1        0.0000
     41 H           3.4469    0.9579   -2.3911 H       1  UNL1        0.0000
     42 H           5.8547    1.2667   -2.6065 H       1  UNL1        0.0000
     43 H           7.4416    0.4264   -0.9190 H       1  UNL1        0.0000
     44 H           7.6844   -0.8930    1.4441 H       1  UNL1        0.0000
     45 H           5.5745   -1.0169    3.9442 H       1  UNL1        0.0000
     46 H           5.7353   -3.1993    2.7119 H       1  UNL1        0.0000
     47 H           3.0361   -1.5168    1.9467 H       1  UNL1        0.0000
@<TRIPOS>BOND
     1     1     2    1
     2     2     3    2
     3     3     4   ar
     4     4     5   ar
     5     5     6   ar
     6     6     7   ar
     7     7     8   ar
     8     8     9   ar
     9     9    10   ar
    10    10    11   ar
    11    11    12   ar
    12    12    13   ar
    13    13    14   ar
    14    14    15   ar
    15     5    16   ar
    16    16    17   ar
    17    17    18   ar
    18    18    19   ar
    19    19    20   ar
    20    20    21   ar
    21    21    22   ar
    22    22    23    2
    23    19    24    1
    24    24    25   ar
    25    25    26   ar
    26    26    27   ar
    27    27    28   ar
    28    28    29    2
    29    29    30    1
    30    30    31    1
    31    31    32    2
    32    23     1    1
    33    32    24   ar
    34    22     3   ar
    35    32    28   ar
    36    15     4   ar
    37    21    16   ar
    38    15     7   ar
    39    14    10   ar
    40     1    33    1
    41     1    34    1
    42     2    35    1
    43     8    36    1
    44     9    37    1
    45    18    38    1
    46    20    39    1
    47    23    40    1
    48    25    41    1
    49    26    42    1
    50    27    43    1
    51    29    44    1
    52    30    45    1
    53    30    46    1
    54    31    47    1
