@<TRIPOS>MOLECULE
*****
 46 52 0 0 0
SMALL
GASTEIGER

@<TRIPOS>ATOM
      1 C           3.6731   -2.6330   -1.7262 C.3     1  UNL1       -0.0148
      2 C           2.3314   -2.0233   -1.4581 C.2     1  UNL1       -0.0719
      3 C           2.4525   -0.9735   -0.6315 C.ar    1  UNL1       -0.0124
      4 C           1.4892   -0.0350   -0.1393 C.ar    1  UNL1        0.0055
      5 C           1.9856    1.1671    0.3708 C.ar    1  UNL1        0.0288
      6 S           0.7400    2.3124    0.6266 S.2     1  UNL1       -0.0876
      7 C          -0.5047    1.1765    0.2693 C.ar    1  UNL1        0.0217
      8 C          -1.9127    1.4143    0.2986 C.ar    1  UNL1       -0.0390
      9 C          -2.8594    0.3911    0.0773 C.ar    1  UNL1       -0.0077
     10 C          -4.3004    0.6082    0.1191 C.ar    1  UNL1       -0.0172
     11 C          -5.0820    0.0946    1.1660 C.ar    1  UNL1       -0.0540
     12 C          -6.4604    0.3176    1.2084 C.ar    1  UNL1       -0.0612
     13 C          -7.0769    1.0617    0.2050 C.ar    1  UNL1       -0.0617
     14 C          -6.3164    1.5840   -0.8388 C.ar    1  UNL1       -0.0612
     15 C          -4.9378    1.3607   -0.8794 C.ar    1  UNL1       -0.0540
     16 C          -2.2388   -0.8427   -0.1262 C.ar    1  UNL1        0.0078
     17 C          -2.8842   -2.0491   -0.3014 C.ar    1  UNL1        0.0100
     18 N          -1.9250   -3.0370   -0.3846 N.ar    1  UNL1       -0.3659
     19 C          -0.6663   -2.4852   -0.2719 C.ar    1  UNL1        0.0100
     20 C          -0.8591   -1.1372   -0.1810 C.ar    1  UNL1        0.0088
     21 C           0.0764   -0.0509   -0.0332 C.ar    1  UNL1        0.0067
     22 C           3.4194    1.4610    0.6387 C.ar    1  UNL1       -0.0030
     23 C           3.8615    2.6418    1.2558 C.ar    1  UNL1       -0.0529
     24 C           5.2179    2.8417    1.5253 C.ar    1  UNL1       -0.0611
     25 C           6.1505    1.8648    1.1885 C.ar    1  UNL1       -0.0611
     26 C           5.7343    0.6837    0.5739 C.ar    1  UNL1       -0.0534
     27 C           4.3777    0.4715    0.2913 C.ar    1  UNL1       -0.0094
     28 C           3.8840   -0.7393   -0.3940 C.ar    1  UNL1       -0.0134
     29 C           4.5966   -1.7076   -0.9961 C.2     1  UNL1       -0.0719
     30 H           3.8932   -2.6378   -2.7979 H       1  UNL1        0.0350
     31 H           3.7336   -3.6516   -1.3325 H       1  UNL1        0.0350
     32 H           1.4255   -2.3713   -1.9254 H       1  UNL1        0.0581
     33 H          -2.2678    2.4185    0.5277 H       1  UNL1        0.0635
     34 H          -4.6126   -0.4819    1.9608 H       1  UNL1        0.0624
     35 H          -7.0498   -0.0874    2.0266 H       1  UNL1        0.0618
     36 H          -8.1490    1.2363    0.2375 H       1  UNL1        0.0618
     37 H          -6.7941    2.1659   -1.6226 H       1  UNL1        0.0618
     38 H          -4.3580    1.7728   -1.7029 H       1  UNL1        0.0624
     39 H          -3.9339   -2.3074   -0.3477 H       1  UNL1        0.0813
     40 H          -2.1195   -4.0256   -0.4766 H       1  UNL1        0.1648
     41 H           0.2033   -3.1227   -0.2388 H       1  UNL1        0.0813
     42 H           3.1629    3.4214    1.5470 H       1  UNL1        0.0624
     43 H           5.5435    3.7612    2.0055 H       1  UNL1        0.0618
     44 H           7.2044    2.0227    1.4035 H       1  UNL1        0.0618
     45 H           6.4813   -0.0624    0.3194 H       1  UNL1        0.0624
     46 H           5.6712   -1.7898   -1.0366 H       1  UNL1        0.0581
@<TRIPOS>BOND
     1     1     2    1
     2     2     3    2
     3     3     4   ar
     4     4     5   ar
     5     5     6   ar
     6     6     7   ar
     7     7     8   ar
     8     8     9   ar
     9     9    10    1
    10    10    11   ar
    11    11    12   ar
    12    12    13   ar
    13    13    14   ar
    14    14    15   ar
    15     9    16   ar
    16    16    17   ar
    17    17    18   ar
    18    18    19   ar
    19    19    20   ar
    20    20    21   ar
    21     5    22   ar
    22    22    23   ar
    23    23    24   ar
    24    24    25   ar
    25    25    26   ar
    26    26    27   ar
    27    27    28   ar
    28    28    29    2
    29    29     1    1
    30    28     3   ar
    31    21     4   ar
    32    27    22   ar
    33    21     7   ar
    34    15    10   ar
    35    20    16   ar
    36     1    30    1
    37     1    31    1
    38     2    32    1
    39     8    33    1
    40    11    34    1
    41    12    35    1
    42    13    36    1
    43    14    37    1
    44    15    38    1
    45    17    39    1
    46    18    40    1
    47    19    41    1
    48    23    42    1
    49    24    43    1
    50    25    44    1
    51    26    45    1
    52    29    46    1
