@<TRIPOS>MOLECULE
*****
 42 48 0 0 0
SMALL
GASTEIGER

@<TRIPOS>ATOM
      1 SI          1.4121   -3.3721   -2.5131 Si      1  UNL1        0.0000
      2 C           0.2797   -2.2862   -1.5115 C.2     1  UNL1        0.0000
      3 C           0.9659   -1.3599   -0.8083 C.ar    1  UNL1        0.0000
      4 C           0.3539   -0.3638    0.0774 C.ar    1  UNL1        0.0000
      5 C           1.1585    0.5081    0.7259 C.ar    1  UNL1        0.0000
      6 C           2.6205    0.4757    0.5757 C.ar    1  UNL1        0.0000
      7 C           3.4953    1.3588    1.2378 C.ar    1  UNL1        0.0000
      8 C           3.1219    2.3577    2.1085 C.ar    1  UNL1        0.0000
      9 S           4.4780    3.2263    2.7152 S.2     1  UNL1        0.0000
     10 C           5.5847    2.2701    1.8168 C.ar    1  UNL1        0.0000
     11 C           4.9304    1.3168    1.0765 C.ar    1  UNL1        0.0000
     12 C           5.6149    0.4166    0.2630 C.ar    1  UNL1        0.0000
     13 C           4.7395   -0.4715   -0.4023 C.ar    1  UNL1        0.0000
     14 C           3.3075   -0.4588   -0.2657 C.ar    1  UNL1        0.0000
     15 C           2.4395   -1.4223   -0.9924 C.ar    1  UNL1        0.0000
     16 C           2.8538   -2.3928   -1.8347 C.2     1  UNL1        0.0000
     17 C          -1.0558   -0.2187    0.2882 C.ar    1  UNL1        0.0000
     18 C          -1.9854    0.4173   -0.5192 C.ar    1  UNL1        0.0000
     19 C          -3.2631    0.3159    0.0466 C.ar    1  UNL1        0.0000
     20 C          -3.3738   -0.3681    1.2465 C.ar    1  UNL1        0.0000
     21 C          -4.6153   -0.5490    1.9353 C.ar    1  UNL1        0.0000
     22 C          -5.8340   -0.0369    1.4351 C.ar    1  UNL1        0.0000
     23 C          -5.6541    0.6334    0.2356 C.ar    1  UNL1        0.0000
     24 C          -6.6324    1.2455   -0.5104 C.ar    1  UNL1        0.0000
     25 O          -6.0836    1.8083   -1.6396 O.2     1  UNL1        0.0000
     26 C          -4.7331    1.5527   -1.6157 C.ar    1  UNL1        0.0000
     27 C          -4.4738    0.8442   -0.4855 C.ar    1  UNL1        0.0000
     28 S          -1.7981   -0.9143    1.6900 S.2     1  UNL1        0.0000
     29 H           1.2428   -3.1802   -3.9736 H       1  UNL1        0.0000
     30 H           1.4199   -4.7796   -2.0476 H       1  UNL1        0.0000
     31 H          -0.7887   -2.4347   -1.5292 H       1  UNL1        0.0000
     32 H           0.7306    1.2618    1.3775 H       1  UNL1        0.0000
     33 H           2.1358    2.6477    2.4408 H       1  UNL1        0.0000
     34 H           6.6459    2.4654    1.8869 H       1  UNL1        0.0000
     35 H           6.6891    0.3788    0.1374 H       1  UNL1        0.0000
     36 H           5.2022   -1.2079   -1.0578 H       1  UNL1        0.0000
     37 H           3.8588   -2.6426   -2.1297 H       1  UNL1        0.0000
     38 H          -1.7280    0.9110   -1.4478 H       1  UNL1        0.0000
     39 H          -4.6206   -1.0995    2.8749 H       1  UNL1        0.0000
     40 H          -6.7786   -0.1669    1.9458 H       1  UNL1        0.0000
     41 H          -7.7003    1.3755   -0.4057 H       1  UNL1        0.0000
     42 H          -4.1624    1.9381   -2.4477 H       1  UNL1        0.0000
@<TRIPOS>BOND
     1     1     2    1
     2     2     3    2
     3     3     4   ar
     4     4     5   ar
     5     5     6   ar
     6     6     7   ar
     7     7     8   ar
     8     8     9   ar
     9     9    10   ar
    10    10    11   ar
    11    11    12   ar
    12    12    13   ar
    13    13    14   ar
    14    14    15   ar
    15    15    16    2
    16     4    17    1
    17    17    18   ar
    18    18    19   ar
    19    19    20   ar
    20    20    21   ar
    21    21    22   ar
    22    22    23   ar
    23    23    24   ar
    24    24    25   ar
    25    25    26   ar
    26    26    27   ar
    27    20    28   ar
    28    16     1    1
    29    28    17   ar
    30    15     3   ar
    31    27    19   ar
    32    14     6   ar
    33    27    23   ar
    34    11     7   ar
    35     1    29    1
    36     1    30    1
    37     2    31    1
    38     5    32    1
    39     8    33    1
    40    10    34    1
    41    12    35    1
    42    13    36    1
    43    16    37    1
    44    18    38    1
    45    21    39    1
    46    22    40    1
    47    24    41    1
    48    26    42    1
