@<TRIPOS>MOLECULE
*****
 43 49 0 0 0
SMALL
GASTEIGER

@<TRIPOS>ATOM
      1 C           3.2678    0.9886    2.9857 C.3     1  UNL1        0.0000
      2 C           1.9464    0.7776    2.3093 C.2     1  UNL1        0.0000
      3 C           2.1301    0.3847    1.0397 C.ar    1  UNL1        0.0000
      4 C           1.2007    0.1150   -0.0211 C.ar    1  UNL1        0.0000
      5 C           1.7254    0.0651   -1.3137 C.ar    1  UNL1        0.0000
      6 S           0.5022    0.0086   -2.4978 S.2     1  UNL1        0.0000
      7 C          -0.7276   -0.0714   -1.3168 C.ar    1  UNL1        0.0000
      8 C          -2.1091   -0.0605   -1.6841 C.ar    1  UNL1        0.0000
      9 C          -3.0595   -0.1780   -0.7244 C.ar    1  UNL1        0.0000
     10 C          -4.4766   -0.0697   -1.1604 C.ar    1  UNL1        0.0000
     11 N          -4.8006   -0.5739   -2.3578 N.ar    1  UNL1        0.0000
     12 C          -6.0786   -0.4285   -2.6956 C.ar    1  UNL1        0.0000
     13 N          -7.0190    0.1647   -1.9664 N.ar    1  UNL1        0.0000
     14 C          -6.5786    0.6352   -0.8033 C.ar    1  UNL1        0.0000
     15 N          -5.3336    0.5510   -0.3436 N.ar    1  UNL1        0.0000
     16 C          -2.6112   -0.4226    0.6649 C.ar    1  UNL1        0.0000
     17 C          -3.4218   -0.7550    1.6934 C.2     1  UNL1        0.0000
     18 SI         -2.4663   -1.1656    3.2343 Si      1  UNL1        0.0000
     19 C          -0.9015   -0.8718    2.2720 C.2     1  UNL1        0.0000
     20 C          -1.1527   -0.4389    1.0210 C.ar    1  UNL1        0.0000
     21 C          -0.2072   -0.1527   -0.0278 C.ar    1  UNL1        0.0000
     22 C           3.1641    0.0893   -1.6499 C.ar    1  UNL1        0.0000
     23 N           3.5095   -0.0614   -2.9527 N.ar    1  UNL1        0.0000
     24 C           4.8297   -0.0805   -3.2310 C.ar    1  UNL1        0.0000
     25 C           5.8254    0.0393   -2.2732 C.ar    1  UNL1        0.0000
     26 C           5.4535    0.1943   -0.9392 C.ar    1  UNL1        0.0000
     27 C           4.0995    0.2228   -0.6058 C.ar    1  UNL1        0.0000
     28 C           3.5738    0.4121    0.7553 C.ar    1  UNL1        0.0000
     29 C           4.2422    0.7328    1.8761 C.2     1  UNL1        0.0000
     30 H           3.3583    2.0141    3.3558 H       1  UNL1        0.0000
     31 H           3.4087    0.2845    3.8108 H       1  UNL1        0.0000
     32 H           1.0028    0.9696    2.7928 H       1  UNL1        0.0000
     33 H          -2.3696    0.0962   -2.7278 H       1  UNL1        0.0000
     34 H          -6.3812   -0.8301   -3.6568 H       1  UNL1        0.0000
     35 H          -7.3030    1.1347   -0.1690 H       1  UNL1        0.0000
     36 H          -4.4955   -0.8533    1.6791 H       1  UNL1        0.0000
     37 H          -2.6225   -2.5817    3.6439 H       1  UNL1        0.0000
     38 H          -2.6578   -0.1667    4.3133 H       1  UNL1        0.0000
     39 H           0.0547   -1.0879    2.7155 H       1  UNL1        0.0000
     40 H           5.0771   -0.2013   -4.2822 H       1  UNL1        0.0000
     41 H           6.8709    0.0145   -2.5609 H       1  UNL1        0.0000
     42 H           6.2223    0.2921   -0.1795 H       1  UNL1        0.0000
     43 H           5.3081    0.8649    1.9778 H       1  UNL1        0.0000
@<TRIPOS>BOND
     1     1     2    1
     2     2     3    2
     3     3     4   ar
     4     4     5   ar
     5     5     6   ar
     6     6     7   ar
     7     7     8   ar
     8     8     9   ar
     9     9    10    1
    10    10    11   ar
    11    11    12   ar
    12    12    13   ar
    13    13    14   ar
    14    14    15   ar
    15     9    16   ar
    16    16    17    2
    17    17    18    1
    18    18    19    1
    19    19    20    2
    20    20    21   ar
    21     5    22   ar
    22    22    23   ar
    23    23    24   ar
    24    24    25   ar
    25    25    26   ar
    26    26    27   ar
    27    27    28   ar
    28    28    29    2
    29    29     1    1
    30    28     3   ar
    31    21     4   ar
    32    27    22   ar
    33    21     7   ar
    34    15    10   ar
    35    20    16   ar
    36     1    30    1
    37     1    31    1
    38     2    32    1
    39     8    33    1
    40    12    34    1
    41    14    35    1
    42    17    36    1
    43    18    37    1
    44    18    38    1
    45    19    39    1
    46    24    40    1
    47    25    41    1
    48    26    42    1
    49    29    43    1
