@<TRIPOS>MOLECULE
*****
 44 50 0 0 0
SMALL
GASTEIGER

@<TRIPOS>ATOM
      1 C          -0.7121   -1.4165    3.4437 C.3     1  UNL1        0.0000
      2 C           0.6351   -0.9999    2.9417 C.2     1  UNL1        0.0000
      3 C           0.5272   -0.5821    1.6716 C.ar    1  UNL1        0.0000
      4 C           1.5801   -0.2605    0.7368 C.ar    1  UNL1        0.0000
      5 C           3.0138   -0.1096    0.9936 C.2     1  UNL1        0.0000
      6 C           3.7719    0.1683   -0.0876 C.2     1  UNL1        0.0000
      7 SI          2.6928    0.2663   -1.6392 Si      1  UNL1        0.0000
      8 C           1.2199   -0.1003   -0.5621 C.ar    1  UNL1        0.0000
      9 C          -0.1695   -0.1606   -1.0510 C.ar    1  UNL1        0.0000
     10 N          -0.3283   -0.0614   -2.3901 N.ar    1  UNL1        0.0000
     11 C          -1.5937   -0.0481   -2.8654 C.ar    1  UNL1        0.0000
     12 C          -2.7504   -0.0304   -2.0944 C.ar    1  UNL1        0.0000
     13 C          -4.0330    0.0506   -2.7614 C.ar    1  UNL1        0.0000
     14 C          -5.2783    0.1696   -2.1149 C.ar    1  UNL1        0.0000
     15 C          -5.0883    0.2565   -0.7496 C.ar    1  UNL1        0.0000
     16 C          -6.0859    0.5114    0.1552 C.ar    1  UNL1        0.0000
     17 N          -5.4797    0.6415    1.3821 N.ar    1  UNL1        0.0000
     18 C          -4.1152    0.4841    1.2537 C.ar    1  UNL1        0.0000
     19 C          -3.8412    0.1565   -0.0540 C.ar    1  UNL1        0.0000
     20 C          -2.5656   -0.0683   -0.6672 C.ar    1  UNL1        0.0000
     21 C          -1.2501   -0.2664   -0.1396 C.ar    1  UNL1        0.0000
     22 C          -0.8771   -0.6252    1.2498 C.ar    1  UNL1        0.0000
     23 C          -1.5865   -1.1816    2.2469 C.2     1  UNL1        0.0000
     24 C           5.1770    0.3642   -0.0980 C.ar    1  UNL1        0.0000
     25 C           5.9373    1.2579   -0.8393 C.ar    1  UNL1        0.0000
     26 C           7.3373    1.1549   -0.5916 C.ar    1  UNL1        0.0000
     27 C           7.6224    0.1816    0.3351 C.ar    1  UNL1        0.0000
     28 S           6.2133   -0.5959    0.9002 S.2     1  UNL1        0.0000
     29 H          -0.7136   -2.4733    3.7265 H       1  UNL1        0.0000
     30 H          -1.0294   -0.8061    4.2940 H       1  UNL1        0.0000
     31 H           1.5504   -1.1137    3.5017 H       1  UNL1        0.0000
     32 H           3.4004   -0.2093    2.0001 H       1  UNL1        0.0000
     33 H           2.7161    1.6446   -2.2018 H       1  UNL1        0.0000
     34 H           3.0398   -0.8175   -2.5974 H       1  UNL1        0.0000
     35 H          -1.6469   -0.0134   -3.9519 H       1  UNL1        0.0000
     36 H          -4.0497    0.0406   -3.8536 H       1  UNL1        0.0000
     37 H          -6.2209    0.2526   -2.6357 H       1  UNL1        0.0000
     38 H          -7.1525    0.6532    0.0455 H       1  UNL1        0.0000
     39 H          -5.9558    0.8789    2.2428 H       1  UNL1        0.0000
     40 H          -3.4836    0.6549    2.1128 H       1  UNL1        0.0000
     41 H          -2.6230   -1.4761    2.2138 H       1  UNL1        0.0000
     42 H           5.5097    1.9737   -1.5315 H       1  UNL1        0.0000
     43 H           8.0933    1.7661   -1.0688 H       1  UNL1        0.0000
     44 H           8.5928   -0.1117    0.7109 H       1  UNL1        0.0000
@<TRIPOS>BOND
     1     1     2    1
     2     2     3    2
     3     3     4   ar
     4     4     5    1
     5     5     6    2
     6     6     7    1
     7     7     8    1
     8     8     9   ar
     9     9    10   ar
    10    10    11   ar
    11    11    12   ar
    12    12    13   ar
    13    13    14   ar
    14    14    15   ar
    15    15    16   ar
    16    16    17   ar
    17    17    18   ar
    18    18    19   ar
    19    19    20   ar
    20    20    21   ar
    21    21    22   ar
    22    22    23    2
    23     6    24    1
    24    24    25   ar
    25    25    26   ar
    26    26    27   ar
    27    27    28   ar
    28    23     1    1
    29    28    24   ar
    30    22     3   ar
    31     8     4   ar
    32    21     9   ar
    33    20    12   ar
    34    19    15   ar
    35     1    29    1
    36     1    30    1
    37     2    31    1
    38     5    32    1
    39     7    33    1
    40     7    34    1
    41    11    35    1
    42    13    36    1
    43    14    37    1
    44    16    38    1
    45    17    39    1
    46    18    40    1
    47    23    41    1
    48    25    42    1
    49    26    43    1
    50    27    44    1
