@<TRIPOS>MOLECULE
*****
 48 55 0 0 0
SMALL
GASTEIGER

@<TRIPOS>ATOM
      1 C          -1.7095   -3.3469   -2.0090 C.3     1  UNL1        0.0000
      2 C          -0.3434   -2.7517   -1.8661 C.2     1  UNL1        0.0000
      3 C          -0.3929   -1.7241   -1.0054 C.ar    1  UNL1        0.0000
      4 C           0.7016   -0.9786   -0.4299 C.ar    1  UNL1        0.0000
      5 C           2.1192   -1.0097   -0.7927 C.2     1  UNL1        0.0000
      6 C           2.9205   -0.2168   -0.0526 C.2     1  UNL1        0.0000
      7 SI          1.9279    0.6942    1.2643 Si      1  UNL1        0.0000
      8 C           0.4046   -0.1554    0.6081 C.ar    1  UNL1        0.0000
      9 C          -0.9581    0.0741    1.1201 C.ar    1  UNL1        0.0000
     10 N          -1.0531    0.8500    2.2219 N.ar    1  UNL1        0.0000
     11 C          -2.2936    1.1196    2.6841 C.ar    1  UNL1        0.0000
     12 C          -3.4856    0.7584    2.0654 C.ar    1  UNL1        0.0000
     13 C          -4.7288    1.1729    2.6638 C.ar    1  UNL1        0.0000
     14 C          -6.0020    0.9582    2.1077 C.ar    1  UNL1        0.0000
     15 C          -5.9053    0.3585    0.8605 C.ar    1  UNL1        0.0000
     16 C          -7.0180    0.1629    0.0792 C.ar    1  UNL1        0.0000
     17 S          -6.5890   -0.4492   -1.4624 S.2     1  UNL1        0.0000
     18 C          -4.9150   -0.4359   -1.0720 C.ar    1  UNL1        0.0000
     19 C          -4.6770   -0.0862    0.2382 C.ar    1  UNL1        0.0000
     20 C          -3.3747    0.0063    0.8459 C.ar    1  UNL1        0.0000
     21 C          -2.0822   -0.4642    0.4443 C.ar    1  UNL1        0.0000
     22 C          -1.7743   -1.5115   -0.5607 C.ar    1  UNL1        0.0000
     23 C          -2.5267   -2.4992   -1.0774 C.2     1  UNL1        0.0000
     24 C           4.3180   -0.0817   -0.2152 C.ar    1  UNL1        0.0000
     25 S           5.3418   -1.4971   -0.2877 S.2     1  UNL1        0.0000
     26 C           6.7887   -0.5798   -0.4770 C.ar    1  UNL1        0.0000
     27 C           6.4831    0.7442   -0.4848 C.ar    1  UNL1        0.0000
     28 C           7.2133    1.9502   -0.6193 C.2     1  UNL1        0.0000
     29 C           6.3572    2.9952   -0.5656 C.2     1  UNL1        0.0000
     30 C           4.9126    2.5217   -0.3749 C.3     1  UNL1        0.0000
     31 C           5.1076    1.0398   -0.3339 C.ar    1  UNL1        0.0000
     32 H          -1.7147   -4.3933   -1.6900 H       1  UNL1        0.0000
     33 H          -2.0739   -3.2721   -3.0375 H       1  UNL1        0.0000
     34 H           0.5446   -3.1615   -2.3221 H       1  UNL1        0.0000
     35 H           2.4662   -1.6302   -1.6097 H       1  UNL1        0.0000
     36 H           2.3233    0.2684    2.6336 H       1  UNL1        0.0000
     37 H           1.9541    2.1631    1.0196 H       1  UNL1        0.0000
     38 H          -2.2948    1.7005    3.6047 H       1  UNL1        0.0000
     39 H          -4.6951    1.7090    3.6153 H       1  UNL1        0.0000
     40 H          -6.9154    1.2956    2.5791 H       1  UNL1        0.0000
     41 H          -8.0536    0.3785    0.3048 H       1  UNL1        0.0000
     42 H          -4.2135   -0.6782   -1.8556 H       1  UNL1        0.0000
     43 H          -3.5589   -2.7149   -0.8508 H       1  UNL1        0.0000
     44 H           7.7483   -1.0669   -0.5735 H       1  UNL1        0.0000
     45 H           8.2844    2.0138   -0.7482 H       1  UNL1        0.0000
     46 H           6.6369    4.0351   -0.6439 H       1  UNL1        0.0000
     47 H           4.2887    2.8265   -1.2197 H       1  UNL1        0.0000
     48 H           4.5065    2.9082    0.5636 H       1  UNL1        0.0000
@<TRIPOS>BOND
     1     1     2    1
     2     2     3    2
     3     3     4   ar
     4     4     5    1
     5     5     6    2
     6     6     7    1
     7     7     8    1
     8     8     9   ar
     9     9    10   ar
    10    10    11   ar
    11    11    12   ar
    12    12    13   ar
    13    13    14   ar
    14    14    15   ar
    15    15    16   ar
    16    16    17   ar
    17    17    18   ar
    18    18    19   ar
    19    19    20   ar
    20    20    21   ar
    21    21    22   ar
    22    22    23    2
    23     6    24    1
    24    24    25   ar
    25    25    26   ar
    26    26    27   ar
    27    27    28    1
    28    28    29    2
    29    29    30    1
    30    30    31    1
    31    23     1    1
    32    31    24   ar
    33    22     3   ar
    34    31    27   ar
    35     8     4   ar
    36    21     9   ar
    37    20    12   ar
    38    19    15   ar
    39     1    32    1
    40     1    33    1
    41     2    34    1
    42     5    35    1
    43     7    36    1
    44     7    37    1
    45    11    38    1
    46    13    39    1
    47    14    40    1
    48    16    41    1
    49    18    42    1
    50    23    43    1
    51    26    44    1
    52    28    45    1
    53    29    46    1
    54    30    47    1
    55    30    48    1
