@<TRIPOS>MOLECULE
*****
 42 48 0 0 0
SMALL
GASTEIGER

@<TRIPOS>ATOM
      1 C          -0.9804   -3.7305   -0.5881 C.3     1  UNL1        0.0000
      2 C           0.3967   -3.1523   -0.4640 C.2     1  UNL1        0.0000
      3 C           0.3104   -1.8292   -0.2591 C.ar    1  UNL1        0.0000
      4 C           1.3857   -0.8536   -0.1481 C.ar    1  UNL1        0.0000
      5 C           2.8341   -1.0756   -0.1710 C.2     1  UNL1        0.0000
      6 C           3.5924    0.0369   -0.0588 C.2     1  UNL1        0.0000
      7 SI          2.4955    1.5768    0.1004 Si      1  UNL1        0.0000
      8 C           1.0404    0.4534   -0.0188 C.ar    1  UNL1        0.0000
      9 C          -0.3257    0.8393    0.0373 C.ar    1  UNL1        0.0000
     10 O          -0.7913    2.1270    0.1521 O.2     1  UNL1        0.0000
     11 C          -2.1528    2.0746    0.2187 C.ar    1  UNL1        0.0000
     12 C          -2.9987    3.2002    0.3467 C.ar    1  UNL1        0.0000
     13 C          -4.3924    3.0264    0.4385 C.ar    1  UNL1        0.0000
     14 C          -4.7621    1.6877    0.4105 C.ar    1  UNL1        0.0000
     15 C          -6.0566    1.2416    0.5298 C.ar    1  UNL1        0.0000
     16 N          -6.0230   -0.1395    0.4996 N.ar    1  UNL1        0.0000
     17 C          -4.7204   -0.5863    0.3668 C.ar    1  UNL1        0.0000
     18 C          -3.9540    0.5370    0.2855 C.ar    1  UNL1        0.0000
     19 C          -2.5479    0.7482    0.1551 C.ar    1  UNL1        0.0000
     20 C          -1.4181   -0.0522   -0.0160 C.ar    1  UNL1        0.0000
     21 C          -1.1133   -1.4347   -0.2077 C.ar    1  UNL1        0.0000
     22 C          -1.8606   -2.5238   -0.4281 C.2     1  UNL1        0.0000
     23 C           5.0099    0.0870   -0.0572 C.ar    1  UNL1        0.0000
     24 C           5.8603    1.0172   -0.6381 C.ar    1  UNL1        0.0000
     25 C           7.2408    0.7441   -0.4107 C.ar    1  UNL1        0.0000
     26 C           7.4204   -0.3909    0.3423 C.ar    1  UNL1        0.0000
     27 S           5.9371   -1.1185    0.7663 S.2     1  UNL1        0.0000
     28 H          -1.1243   -4.1925   -1.5693 H       1  UNL1        0.0000
     29 H          -1.1736   -4.4665    0.1977 H       1  UNL1        0.0000
     30 H           1.3049   -3.7266   -0.5614 H       1  UNL1        0.0000
     31 H           3.2314   -2.0769   -0.2817 H       1  UNL1        0.0000
     32 H           2.6727    2.4801   -1.0688 H       1  UNL1        0.0000
     33 H           2.6581    2.2287    1.4269 H       1  UNL1        0.0000
     34 H          -2.5658    4.1952    0.3798 H       1  UNL1        0.0000
     35 H          -5.0780    3.8565    0.5432 H       1  UNL1        0.0000
     36 H          -6.9969    1.7632    0.6472 H       1  UNL1        0.0000
     37 H          -6.8333   -0.7391    0.5867 H       1  UNL1        0.0000
     38 H          -4.5169   -1.6428    0.3740 H       1  UNL1        0.0000
     39 H          -2.9284   -2.5713   -0.5207 H       1  UNL1        0.0000
     40 H           5.5122    1.8633   -1.2190 H       1  UNL1        0.0000
     41 H           8.0576    1.3497   -0.7834 H       1  UNL1        0.0000
     42 H           8.3537   -0.8317    0.6645 H       1  UNL1        0.0000
@<TRIPOS>BOND
     1     1     2    1
     2     2     3    2
     3     3     4   ar
     4     4     5    1
     5     5     6    2
     6     6     7    1
     7     7     8    1
     8     8     9   ar
     9     9    10   ar
    10    10    11   ar
    11    11    12   ar
    12    12    13   ar
    13    13    14   ar
    14    14    15   ar
    15    15    16   ar
    16    16    17   ar
    17    17    18   ar
    18    18    19   ar
    19    19    20   ar
    20    20    21   ar
    21    21    22    2
    22     6    23    1
    23    23    24   ar
    24    24    25   ar
    25    25    26   ar
    26    26    27   ar
    27    22     1    1
    28    27    23   ar
    29    21     3   ar
    30     8     4   ar
    31    20     9   ar
    32    19    11   ar
    33    18    14   ar
    34     1    28    1
    35     1    29    1
    36     2    30    1
    37     5    31    1
    38     7    32    1
    39     7    33    1
    40    12    34    1
    41    13    35    1
    42    15    36    1
    43    16    37    1
    44    17    38    1
    45    22    39    1
    46    24    40    1
    47    25    41    1
    48    26    42    1
