@<TRIPOS>MOLECULE
*****
 46 52 0 0 0
SMALL
GASTEIGER

@<TRIPOS>ATOM
      1 C           2.9636    1.2734   -3.2839 C.3     1  UNL1        0.0000
      2 C           1.5804    0.9193   -2.8124 C.2     1  UNL1        0.0000
      3 C           1.6458    0.3920   -1.5798 C.ar    1  UNL1        0.0000
      4 C           0.5761   -0.0967   -0.7188 C.ar    1  UNL1        0.0000
      5 C          -0.8607   -0.1287   -1.0034 C.2     1  UNL1        0.0000
      6 C          -1.6314   -0.6336   -0.0188 C.2     1  UNL1        0.0000
      7 SI         -0.5839   -1.1637    1.4605 Si      1  UNL1        0.0000
      8 C           0.9117   -0.5919    0.5084 C.ar    1  UNL1        0.0000
      9 C           2.2823   -0.6228    0.9226 C.ar    1  UNL1        0.0000
     10 S           2.8506   -1.2211    2.4469 S.2     1  UNL1        0.0000
     11 C           4.4346   -0.8723    2.0376 C.ar    1  UNL1        0.0000
     12 C           5.6640   -1.0295    2.7086 C.2     1  UNL1        0.0000
     13 C           6.6174   -0.5631    1.8699 C.2     1  UNL1        0.0000
     14 C           6.0239   -0.0552    0.5481 C.3     1  UNL1        0.0000
     15 C           4.5819   -0.3169    0.7916 C.ar    1  UNL1        0.0000
     16 C           3.3526   -0.1658    0.1349 C.ar    1  UNL1        0.0000
     17 C           3.0498    0.3599   -1.1547 C.ar    1  UNL1        0.0000
     18 C           3.8255    0.8636   -2.1233 C.2     1  UNL1        0.0000
     19 C          -3.0847   -0.7874   -0.0339 C.ar    1  UNL1        0.0000
     20 C          -3.5974   -2.0058   -0.5070 C.ar    1  UNL1        0.0000
     21 C          -4.9698   -2.2261   -0.5540 C.ar    1  UNL1        0.0000
     22 C          -5.8462   -1.2281   -0.1355 C.ar    1  UNL1        0.0000
     23 C          -5.3662    0.0059    0.3289 C.ar    1  UNL1        0.0000
     24 C          -6.2664    1.0035    0.7394 C.ar    1  UNL1        0.0000
     25 C          -5.8106    2.2385    1.1982 C.ar    1  UNL1        0.0000
     26 C          -4.4470    2.4938    1.2508 C.ar    1  UNL1        0.0000
     27 C          -3.5392    1.5122    0.8472 C.ar    1  UNL1        0.0000
     28 C          -3.9697    0.2468    0.3812 C.ar    1  UNL1        0.0000
     29 H           3.2265    0.7130   -4.1859 H       1  UNL1        0.0000
     30 H           3.0497    2.3465   -3.4779 H       1  UNL1        0.0000
     31 H           0.6850    1.0747   -3.3938 H       1  UNL1        0.0000
     32 H          -1.2527    0.2352   -1.9450 H       1  UNL1        0.0000
     33 H          -0.8638   -0.3362    2.6633 H       1  UNL1        0.0000
     34 H          -0.6259   -2.6359    1.6655 H       1  UNL1        0.0000
     35 H           5.8014   -1.4423    3.6966 H       1  UNL1        0.0000
     36 H           7.6753   -0.5424    2.0870 H       1  UNL1        0.0000
     37 H           6.4093   -0.6324   -0.2969 H       1  UNL1        0.0000
     38 H           6.2313    1.0100    0.4140 H       1  UNL1        0.0000
     39 H           4.8980    0.9679   -2.0954 H       1  UNL1        0.0000
     40 H          -2.9249   -2.7928   -0.8432 H       1  UNL1        0.0000
     41 H          -5.3572   -3.1739   -0.9181 H       1  UNL1        0.0000
     42 H          -6.9162   -1.4204   -0.1799 H       1  UNL1        0.0000
     43 H          -7.3390    0.8245    0.7031 H       1  UNL1        0.0000
     44 H          -6.5209    2.9990    1.5112 H       1  UNL1        0.0000
     45 H          -4.0841    3.4553    1.6043 H       1  UNL1        0.0000
     46 H          -2.4789    1.7501    0.8973 H       1  UNL1        0.0000
@<TRIPOS>BOND
     1     1     2    1
     2     2     3    2
     3     3     4   ar
     4     4     5    1
     5     5     6    2
     6     6     7    1
     7     7     8    1
     8     8     9   ar
     9     9    10   ar
    10    10    11   ar
    11    11    12    1
    12    12    13    2
    13    13    14    1
    14    14    15    1
    15    15    16   ar
    16    16    17   ar
    17    17    18    2
    18     6    19    1
    19    19    20   ar
    20    20    21   ar
    21    21    22   ar
    22    22    23   ar
    23    23    24   ar
    24    24    25   ar
    25    25    26   ar
    26    26    27   ar
    27    27    28   ar
    28    18     1    1
    29    28    19   ar
    30    17     3   ar
    31    28    23   ar
    32     8     4   ar
    33    16     9   ar
    34    15    11   ar
    35     1    29    1
    36     1    30    1
    37     2    31    1
    38     5    32    1
    39     7    33    1
    40     7    34    1
    41    12    35    1
    42    13    36    1
    43    14    37    1
    44    14    38    1
    45    18    39    1
    46    20    40    1
    47    21    41    1
    48    22    42    1
    49    24    43    1
    50    25    44    1
    51    26    45    1
    52    27    46    1
