@<TRIPOS>MOLECULE
*****
 48 54 0 0 0
SMALL
GASTEIGER

@<TRIPOS>ATOM
      1 C           0.9039   -3.1544   -3.2597 C.3     1  UNL1        0.0000
      2 C          -0.3543   -2.8113   -2.5330 C.2     1  UNL1        0.0000
      3 C          -0.1062   -1.8156   -1.6703 C.ar    1  UNL1        0.0000
      4 C          -1.0255   -1.1069   -0.8394 C.ar    1  UNL1        0.0000
      5 C          -2.3951   -1.4176   -0.5016 C.2     1  UNL1        0.0000
      6 C          -2.8585   -0.5199    0.3784 C.2     1  UNL1        0.0000
      7 C          -1.7772    0.5015    0.6395 C.3     1  UNL1        0.0000
      8 C          -0.6163    0.0068   -0.1887 C.ar    1  UNL1        0.0000
      9 C           0.8116    0.5108   -0.2014 C.ar    1  UNL1        0.0000
     10 C           1.2316    1.7184    0.4828 C.ar    1  UNL1        0.0000
     11 C           0.3553    2.7346    0.9550 C.ar    1  UNL1        0.0000
     12 C           0.7795    3.8724    1.6477 C.ar    1  UNL1        0.0000
     13 C           2.1220    4.0587    1.8886 C.ar    1  UNL1        0.0000
     14 C           3.0272    3.1189    1.4093 C.ar    1  UNL1        0.0000
     15 C           2.6205    1.9609    0.6951 C.ar    1  UNL1        0.0000
     16 C           3.5617    1.0389    0.1911 C.ar    1  UNL1        0.0000
     17 C           5.0348    1.1283    0.3963 C.2     1  UNL1        0.0000
     18 C           5.7522    0.1368   -0.1525 C.2     1  UNL1        0.0000
     19 SI          4.6930   -1.0869   -1.0414 Si      1  UNL1        0.0000
     20 C           3.1526   -0.0825   -0.5877 C.ar    1  UNL1        0.0000
     21 C           1.7974   -0.3322   -0.8431 C.ar    1  UNL1        0.0000
     22 C           1.3001   -1.4385   -1.7113 C.ar    1  UNL1        0.0000
     23 C           1.8861   -2.1847   -2.6670 C.2     1  UNL1        0.0000
     24 C          -4.1570   -0.4823    0.9850 C.2     1  UNL1        0.0000
     25 C          -4.6196    0.4197    1.8677 C.2     1  UNL1        0.0000
     26 C          -5.9757    0.0979    2.2313 C.2     1  UNL1        0.0000
     27 C          -6.3623   -1.0052    1.5770 C.2     1  UNL1        0.0000
     28 C          -5.2403   -1.4976    0.7079 C.3     1  UNL1        0.0000
     29 H           0.7941   -2.9922   -4.3360 H       1  UNL1        0.0000
     30 H           1.2057   -4.1886   -3.0707 H       1  UNL1        0.0000
     31 H          -1.3124   -3.2686   -2.7241 H       1  UNL1        0.0000
     32 H          -2.9245   -2.2728   -0.8916 H       1  UNL1        0.0000
     33 H          -1.5225    0.5428    1.7035 H       1  UNL1        0.0000
     34 H          -2.1465    1.4667    0.2814 H       1  UNL1        0.0000
     35 H          -0.7037    2.7013    0.7492 H       1  UNL1        0.0000
     36 H           0.0540    4.6098    1.9804 H       1  UNL1        0.0000
     37 H           2.4721    4.9362    2.4242 H       1  UNL1        0.0000
     38 H           4.0775    3.3209    1.5983 H       1  UNL1        0.0000
     39 H           5.4982    1.9274    0.9562 H       1  UNL1        0.0000
     40 H           6.8250    0.0298   -0.1048 H       1  UNL1        0.0000
     41 H           4.7257   -2.4248   -0.3993 H       1  UNL1        0.0000
     42 H           4.9804   -1.0914   -2.4988 H       1  UNL1        0.0000
     43 H           2.8953   -2.1267   -3.0336 H       1  UNL1        0.0000
     44 H          -4.0867    1.2685    2.2685 H       1  UNL1        0.0000
     45 H          -6.5703    0.6707    2.9267 H       1  UNL1        0.0000
     46 H          -7.3293   -1.4782    1.6546 H       1  UNL1        0.0000
     47 H          -4.9353   -2.5059    1.0059 H       1  UNL1        0.0000
     48 H          -5.5380   -1.4938   -0.3456 H       1  UNL1        0.0000
@<TRIPOS>BOND
     1     1     2    1
     2     2     3    2
     3     3     4   ar
     4     4     5    1
     5     5     6    2
     6     6     7    1
     7     7     8    1
     8     8     9   ar
     9     9    10   ar
    10    10    11   ar
    11    11    12   ar
    12    12    13   ar
    13    13    14   ar
    14    14    15   ar
    15    15    16   ar
    16    16    17    1
    17    17    18    2
    18    18    19    1
    19    19    20    1
    20    20    21   ar
    21    21    22   ar
    22    22    23    2
    23     6    24    1
    24    24    25    2
    25    25    26    1
    26    26    27    2
    27    27    28    1
    28    23     1    1
    29    28    24    1
    30    22     3   ar
    31     8     4   ar
    32    21     9   ar
    33    15    10   ar
    34    20    16   ar
    35     1    29    1
    36     1    30    1
    37     2    31    1
    38     5    32    1
    39     7    33    1
    40     7    34    1
    41    11    35    1
    42    12    36    1
    43    13    37    1
    44    14    38    1
    45    17    39    1
    46    18    40    1
    47    19    41    1
    48    19    42    1
    49    23    43    1
    50    25    44    1
    51    26    45    1
    52    27    46    1
    53    28    47    1
    54    28    48    1
