@<TRIPOS>MOLECULE
*****
 45 52 0 0 0
SMALL
GASTEIGER

@<TRIPOS>ATOM
      1 C          -2.0956    3.7956   -1.0368 C.3     1  UNL1       -0.0148
      2 C          -0.6989    3.2640   -1.0083 C.2     1  UNL1       -0.0720
      3 C          -0.7149    1.9921   -0.5846 C.ar    1  UNL1       -0.0137
      4 C           0.3946    1.0942   -0.4041 C.ar    1  UNL1       -0.0132
      5 C           1.8119    1.2836   -0.6168 C.2     1  UNL1       -0.0496
      6 C           2.4836    0.1582   -0.3144 C.2     1  UNL1       -0.0317
      7 C           1.4823   -0.8862    0.1383 C.3     1  UNL1       -0.0006
      8 C           0.1750   -0.1631    0.0363 C.ar    1  UNL1       -0.0269
      9 C          -1.1761   -0.6558    0.3427 C.ar    1  UNL1       -0.0005
     10 C          -1.4938   -1.9409    0.8026 C.ar    1  UNL1        0.0285
     11 C          -0.6675   -3.0113    1.0702 C.ar    1  UNL1        0.1000
     12 O          -1.3900   -4.0969    1.5067 O.2     1  UNL1       -0.4698
     13 C          -2.7097   -3.7309    1.5250 C.ar    1  UNL1        0.1000
     14 C          -2.7716   -2.4420    1.1040 C.ar    1  UNL1        0.0296
     15 C          -3.8871   -1.5890    0.9391 C.ar    1  UNL1        0.0110
     16 C          -5.2350   -1.8477    1.1676 C.ar    1  UNL1       -0.0360
     17 C          -5.8671   -0.6675    0.8430 C.ar    1  UNL1        0.0028
     18 N          -4.9158    0.2478    0.4386 N.ar    1  UNL1       -0.3601
     19 C          -3.6471   -0.2982    0.4856 C.ar    1  UNL1        0.0556
     20 C          -2.3417    0.1943    0.1841 C.ar    1  UNL1        0.0144
     21 C          -2.0944    1.5746   -0.3000 C.ar    1  UNL1       -0.0115
     22 C          -2.9016    2.6185   -0.5609 C.2     1  UNL1       -0.0719
     23 C           3.9215   -0.1164   -0.3752 C.ar    1  UNL1        0.0247
     24 C           4.4976   -1.3484   -0.0202 C.ar    1  UNL1        0.0372
     25 N           5.8226   -1.7149   -0.0381 N.ar    1  UNL1       -0.2604
     26 C           6.7779   -0.8321   -0.4390 C.ar    1  UNL1        0.0557
     27 C           6.3670    0.4555   -0.8308 C.ar    1  UNL1        0.1185
     28 N           7.1690    1.4466   -1.2523 N.ar    1  UNL1       -0.1892
     29 S           6.1831    2.7361   -1.5835 S.2     1  UNL1        0.1165
     30 N           4.7035    2.0964   -1.2083 N.ar    1  UNL1       -0.1901
     31 C           4.8990    0.8279   -0.7996 C.ar    1  UNL1        0.1102
     32 H          -2.2085    4.6479   -0.3604 H       1  UNL1        0.0350
     33 H          -2.3874    4.0874   -2.0499 H       1  UNL1        0.0350
     34 H           0.1749    3.8315   -1.2891 H       1  UNL1        0.0581
     35 H           2.2201    2.2179   -0.9698 H       1  UNL1        0.0627
     36 H           1.6851   -1.1889    1.1712 H       1  UNL1        0.0362
     37 H           1.5056   -1.7538   -0.5299 H       1  UNL1        0.0362
     38 H           0.3944   -3.1940    1.0183 H       1  UNL1        0.1036
     39 H          -3.4121   -4.4843    1.8492 H       1  UNL1        0.1036
     40 H          -5.7078   -2.7547    1.5185 H       1  UNL1        0.0639
     41 H          -6.9130   -0.3912    0.8620 H       1  UNL1        0.0807
     42 H          -5.1320    1.1879    0.1496 H       1  UNL1        0.1654
     43 H          -3.9695    2.6771   -0.4673 H       1  UNL1        0.0581
     44 H           3.8615   -2.1643    0.3240 H       1  UNL1        0.0836
     45 H           7.8079   -1.1629   -0.4374 H       1  UNL1        0.0852
@<TRIPOS>BOND
     1     1     2    1
     2     2     3    2
     3     3     4   ar
     4     4     5    1
     5     5     6    2
     6     6     7    1
     7     7     8    1
     8     8     9   ar
     9     9    10   ar
    10    10    11   ar
    11    11    12   ar
    12    12    13   ar
    13    13    14   ar
    14    14    15   ar
    15    15    16   ar
    16    16    17   ar
    17    17    18   ar
    18    18    19   ar
    19    19    20   ar
    20    20    21   ar
    21    21    22    2
    22     6    23    1
    23    23    24   ar
    24    24    25   ar
    25    25    26   ar
    26    26    27   ar
    27    27    28   ar
    28    28    29   ar
    29    29    30   ar
    30    30    31   ar
    31    22     1    1
    32    31    23   ar
    33    21     3   ar
    34    31    27   ar
    35     8     4   ar
    36    20     9   ar
    37    14    10   ar
    38    19    15   ar
    39     1    32    1
    40     1    33    1
    41     2    34    1
    42     5    35    1
    43     7    36    1
    44     7    37    1
    45    11    38    1
    46    13    39    1
    47    16    40    1
    48    17    41    1
    49    18    42    1
    50    22    43    1
    51    24    44    1
    52    26    45    1
