@<TRIPOS>MOLECULE
*****
 40 46 0 0 0
SMALL
GASTEIGER

@<TRIPOS>ATOM
      1 C          -2.1020   -3.6488   -0.6316 C.3     1  UNL1       -0.0148
      2 C          -0.6765   -3.2226   -0.4292 C.2     1  UNL1       -0.0719
      3 C          -0.6257   -1.8913   -0.2770 C.ar    1  UNL1       -0.0137
      4 C           0.5109   -1.0324   -0.0584 C.ar    1  UNL1       -0.0131
      5 C           1.9223   -1.3229    0.0636 C.2     1  UNL1       -0.0483
      6 C           2.6206   -0.1879    0.2648 C.2     1  UNL1       -0.0192
      7 C           1.6412    0.9782    0.2864 C.3     1  UNL1        0.0008
      8 C           0.3236    0.2996    0.0679 C.ar    1  UNL1       -0.0253
      9 C          -1.0092    0.9236   -0.0087 C.ar    1  UNL1        0.0185
     10 C          -1.2093    2.3266    0.1239 C.ar    1  UNL1        0.1087
     11 N          -0.2805    3.2854    0.3308 N.ar    1  UNL1       -0.1901
     12 S          -1.0812    4.7529    0.4051 S.2     1  UNL1        0.1165
     13 N          -2.6647    4.2542    0.1775 N.ar    1  UNL1       -0.1900
     14 C          -2.5303    2.9439    0.0479 C.ar    1  UNL1        0.1112
     15 C          -3.6407    2.0830   -0.1679 C.ar    1  UNL1        0.0489
     16 C          -4.9977    2.3829   -0.2828 C.ar    1  UNL1       -0.0140
     17 C          -5.5881    1.1525   -0.4826 C.ar    1  UNL1        0.0932
     18 O          -4.6574    0.1512   -0.4914 O.2     1  UNL1       -0.4622
     19 C          -3.4274    0.7298   -0.2937 C.ar    1  UNL1        0.1452
     20 C          -2.1727    0.1125   -0.2249 C.ar    1  UNL1        0.0348
     21 C          -1.9798   -1.3386   -0.3637 C.ar    1  UNL1       -0.0099
     22 C          -2.8450   -2.3447   -0.5689 C.2     1  UNL1       -0.0718
     23 C           4.0299   -0.1260    0.4255 C.ar    1  UNL1        0.0428
     24 C           4.8813    0.9439    0.6382 C.ar    1  UNL1       -0.0367
     25 C           6.2032    0.4460    0.7265 C.ar    1  UNL1       -0.0438
     26 C           6.1335   -0.9175    0.5660 C.ar    1  UNL1        0.0022
     27 N           4.8162   -1.2548    0.3845 N.ar    1  UNL1       -0.3609
     28 H          -2.4274   -4.3257    0.1637 H       1  UNL1        0.0350
     29 H          -2.2346   -4.1309   -1.6046 H       1  UNL1        0.0350
     30 H           0.1624   -3.9003   -0.4123 H       1  UNL1        0.0581
     31 H           2.3009   -2.3297   -0.0057 H       1  UNL1        0.0627
     32 H           1.6774    1.4865    1.2557 H       1  UNL1        0.0362
     33 H           1.8712    1.6821   -0.5204 H       1  UNL1        0.0362
     34 H          -5.4923    3.3424   -0.2310 H       1  UNL1        0.0656
     35 H          -6.6103    0.8308   -0.6294 H       1  UNL1        0.1030
     36 H          -3.9154   -2.2607   -0.6764 H       1  UNL1        0.0581
     37 H           4.5806    1.9806    0.7217 H       1  UNL1        0.0639
     38 H           7.1053    1.0211    0.8894 H       1  UNL1        0.0633
     39 H           6.9034   -1.6771    0.5647 H       1  UNL1        0.0807
     40 H           4.4843   -2.1979    0.2423 H       1  UNL1        0.1653
@<TRIPOS>BOND
     1     1     2    1
     2     2     3    2
     3     3     4   ar
     4     4     5    1
     5     5     6    2
     6     6     7    1
     7     7     8    1
     8     8     9   ar
     9     9    10   ar
    10    10    11   ar
    11    11    12   ar
    12    12    13   ar
    13    13    14   ar
    14    14    15   ar
    15    15    16   ar
    16    16    17   ar
    17    17    18   ar
    18    18    19   ar
    19    19    20   ar
    20    20    21   ar
    21    21    22    2
    22     6    23    1
    23    23    24   ar
    24    24    25   ar
    25    25    26   ar
    26    26    27   ar
    27    22     1    1
    28    27    23   ar
    29    21     3   ar
    30     8     4   ar
    31    20     9   ar
    32    14    10   ar
    33    19    15   ar
    34     1    28    1
    35     1    29    1
    36     2    30    1
    37     5    31    1
    38     7    32    1
    39     7    33    1
    40    16    34    1
    41    17    35    1
    42    22    36    1
    43    24    37    1
    44    25    38    1
    45    26    39    1
    46    27    40    1
