@<TRIPOS>MOLECULE
*****
 51 58 0 0 0
SMALL
GASTEIGER

@<TRIPOS>ATOM
      1 C           1.5276   -2.9346   -2.5100 C.3     1  UNL1       -0.0148
      2 C           0.1823   -2.3124   -2.2844 C.2     1  UNL1       -0.0719
      3 C           0.2997   -1.3064   -1.4054 C.ar    1  UNL1       -0.0136
      4 C          -0.7419   -0.5061   -0.7965 C.ar    1  UNL1       -0.0103
      5 C          -2.1701   -0.4616   -1.0149 C.2     1  UNL1       -0.0496
      6 C          -2.7321    0.4266   -0.1753 C.2     1  UNL1       -0.0346
      7 C          -1.6576    1.0676    0.6710 C.3     1  UNL1        0.0023
      8 C          -0.4195    0.3743    0.1813 C.ar    1  UNL1        0.0075
      9 C           0.9530    0.5158    0.5456 C.ar    1  UNL1        0.1409
     10 O           1.4244    1.3152    1.5427 O.2     1  UNL1       -0.4545
     11 C           2.7784    1.2206    1.5411 C.ar    1  UNL1        0.1369
     12 C           3.5921    1.8794    2.4585 C.ar    1  UNL1       -0.0181
     13 C           4.9685    1.7183    2.3130 C.ar    1  UNL1       -0.0505
     14 C           5.5085    0.9840    1.2510 C.ar    1  UNL1       -0.0171
     15 C           6.9008    0.8970    1.0957 C.ar    1  UNL1       -0.0540
     16 C           7.4613    0.2307    0.0063 C.ar    1  UNL1       -0.0612
     17 C           6.6365   -0.3396   -0.9555 C.ar    1  UNL1       -0.0611
     18 C           5.2486   -0.2747   -0.8138 C.ar    1  UNL1       -0.0533
     19 C           4.6551    0.3453    0.3051 C.ar    1  UNL1       -0.0065
     20 C           3.2356    0.4040    0.5050 C.ar    1  UNL1        0.0362
     21 C           2.0371   -0.1478   -0.0484 C.ar    1  UNL1        0.0362
     22 C           1.7155   -1.1538   -1.0166 C.ar    1  UNL1       -0.0099
     23 C           2.4204   -2.1279   -1.6085 C.2     1  UNL1       -0.0718
     24 C          -4.1316    0.7987   -0.0688 C.ar    1  UNL1       -0.0124
     25 C          -4.5952    2.1217    0.1580 C.ar    1  UNL1       -0.0537
     26 C          -5.9825    2.4936    0.2675 C.ar    1  UNL1       -0.0606
     27 C          -7.0576    1.5835    0.1757 C.ar    1  UNL1       -0.0526
     28 C          -6.5863    0.2936   -0.0241 C.ar    1  UNL1       -0.0000
     29 C          -7.3651   -0.8298   -0.1238 C.ar    1  UNL1        0.0094
     30 N          -6.5067   -1.8959   -0.2790 N.ar    1  UNL1       -0.3659
     31 C          -5.1970   -1.4608   -0.2757 C.ar    1  UNL1        0.0100
     32 C          -5.2127   -0.0921   -0.1411 C.ar    1  UNL1        0.0068
     33 H           1.5246   -3.9880   -2.2144 H       1  UNL1        0.0350
     34 H           1.8372   -2.8458   -3.5553 H       1  UNL1        0.0350
     35 H          -0.7357   -2.6720   -2.7227 H       1  UNL1        0.0581
     36 H          -2.6785   -1.0502   -1.7626 H       1  UNL1        0.0627
     37 H          -1.5886    2.1461    0.4961 H       1  UNL1        0.0363
     38 H          -1.8218    0.8726    1.7359 H       1  UNL1        0.0363
     39 H           3.1669    2.4835    3.2511 H       1  UNL1        0.0655
     40 H           5.6238    2.2133    3.0277 H       1  UNL1        0.0625
     41 H           7.5663    1.3652    1.8182 H       1  UNL1        0.0624
     42 H           8.5415    0.1813   -0.1032 H       1  UNL1        0.0618
     43 H           7.0704   -0.8235   -1.8267 H       1  UNL1        0.0618
     44 H           4.6398   -0.6646   -1.6187 H       1  UNL1        0.0624
     45 H           3.4571   -2.3701   -1.4519 H       1  UNL1        0.0581
     46 H          -3.8646    2.9271    0.2399 H       1  UNL1        0.0624
     47 H          -6.2129    3.5468    0.4322 H       1  UNL1        0.0618
     48 H          -8.0948    1.8715    0.2651 H       1  UNL1        0.0624
     49 H          -8.4352   -0.9810   -0.0878 H       1  UNL1        0.0813
     50 H          -6.7935   -2.8622   -0.3639 H       1  UNL1        0.1648
     51 H          -4.3914   -2.1764   -0.3590 H       1  UNL1        0.0813
@<TRIPOS>BOND
     1     1     2    1
     2     2     3    2
     3     3     4   ar
     4     4     5    1
     5     5     6    2
     6     6     7    1
     7     7     8    1
     8     8     9   ar
     9     9    10   ar
    10    10    11   ar
    11    11    12   ar
    12    12    13   ar
    13    13    14   ar
    14    14    15   ar
    15    15    16   ar
    16    16    17   ar
    17    17    18   ar
    18    18    19   ar
    19    19    20   ar
    20    20    21   ar
    21    21    22   ar
    22    22    23    2
    23     6    24    1
    24    24    25   ar
    25    25    26   ar
    26    26    27   ar
    27    27    28   ar
    28    28    29   ar
    29    29    30   ar
    30    30    31   ar
    31    31    32   ar
    32    23     1    1
    33    32    24   ar
    34    22     3   ar
    35    32    28   ar
    36     8     4   ar
    37    21     9   ar
    38    20    11   ar
    39    19    14   ar
    40     1    33    1
    41     1    34    1
    42     2    35    1
    43     5    36    1
    44     7    37    1
    45     7    38    1
    46    12    39    1
    47    13    40    1
    48    15    41    1
    49    16    42    1
    50    17    43    1
    51    18    44    1
    52    23    45    1
    53    25    46    1
    54    26    47    1
    55    27    48    1
    56    29    49    1
    57    30    50    1
    58    31    51    1
