@<TRIPOS>MOLECULE
*****
 37 42 0 0 0
SMALL
GASTEIGER

@<TRIPOS>ATOM
      1 C           1.8768    1.0444   -3.8001 C.3     1  UNL1       -0.0148
      2 C           0.5517    0.9327   -3.0926 C.2     1  UNL1       -0.0719
      3 C           0.7506    0.5153   -1.8336 C.ar    1  UNL1       -0.0135
      4 C          -0.2022    0.2575   -0.7666 C.ar    1  UNL1       -0.0103
      5 C          -1.6435    0.3684   -0.7288 C.2     1  UNL1       -0.0499
      6 C          -2.1001    0.0206    0.4877 C.2     1  UNL1       -0.0389
      7 C          -0.9306   -0.3598    1.3703 C.3     1  UNL1        0.0019
      8 C           0.2367   -0.1662    0.4481 C.ar    1  UNL1        0.0075
      9 C           1.6429   -0.3483    0.6430 C.ar    1  UNL1        0.1414
     10 O           2.2509   -0.7680    1.7995 O.2     1  UNL1       -0.4539
     11 C           3.5906   -0.7945    1.5225 C.ar    1  UNL1        0.1433
     12 C           4.7164   -1.1369    2.2964 C.ar    1  UNL1       -0.0117
     13 C           5.8482   -0.9870    1.5203 C.ar    1  UNL1       -0.0201
     14 S           5.5364   -0.4471   -0.0935 S.2     1  UNL1       -0.0928
     15 C           3.8388   -0.4090    0.2434 C.ar    1  UNL1        0.0656
     16 C           2.5967   -0.1167   -0.3419 C.ar    1  UNL1        0.0422
     17 C           2.1921    0.3248   -1.6216 C.ar    1  UNL1       -0.0094
     18 C           2.8595    0.6238   -2.7414 C.2     1  UNL1       -0.0718
     19 C          -3.4644   -0.0034    0.9288 C.2     1  UNL1       -0.0401
     20 C          -3.9224   -0.3505    2.1439 C.2     1  UNL1       -0.0583
     21 C          -5.3581   -0.2387    2.1764 C.2     1  UNL1       -0.0651
     22 C          -5.7994    0.1782    0.9823 C.2     1  UNL1       -0.0797
     23 C          -4.6357    0.3745    0.0531 C.3     1  UNL1       -0.0089
     24 H           2.0634    2.0729   -4.1227 H       1  UNL1        0.0350
     25 H           1.9182    0.3733   -4.6631 H       1  UNL1        0.0350
     26 H          -0.4004    1.1585   -3.5469 H       1  UNL1        0.0581
     27 H          -2.2342    0.6874   -1.5737 H       1  UNL1        0.0627
     28 H          -1.0001   -1.4022    1.6986 H       1  UNL1        0.0363
     29 H          -0.8548    0.3012    2.2401 H       1  UNL1        0.0363
     30 H           4.7027   -1.4634    3.3268 H       1  UNL1        0.0660
     31 H           6.8731   -1.1684    1.8152 H       1  UNL1        0.0695
     32 H           3.9282    0.5769   -2.8810 H       1  UNL1        0.0581
     33 H          -3.3363   -0.6700    2.9924 H       1  UNL1        0.0620
     34 H          -5.9650   -0.4618    3.0408 H       1  UNL1        0.0615
     35 H          -6.8312    0.3504    0.7165 H       1  UNL1        0.0575
     36 H          -4.7202   -0.2858   -0.8160 H       1  UNL1        0.0356
     37 H          -4.5753    1.4172   -0.2749 H       1  UNL1        0.0356
@<TRIPOS>BOND
     1     1     2    1
     2     2     3    2
     3     3     4   ar
     4     4     5    1
     5     5     6    2
     6     6     7    1
     7     7     8    1
     8     8     9   ar
     9     9    10   ar
    10    10    11   ar
    11    11    12   ar
    12    12    13   ar
    13    13    14   ar
    14    14    15   ar
    15    15    16   ar
    16    16    17   ar
    17    17    18    2
    18     6    19    1
    19    19    20    2
    20    20    21    1
    21    21    22    2
    22    22    23    1
    23    18     1    1
    24    23    19    1
    25    17     3   ar
    26     8     4   ar
    27    16     9   ar
    28    15    11   ar
    29     1    24    1
    30     1    25    1
    31     2    26    1
    32     5    27    1
    33     7    28    1
    34     7    29    1
    35    12    30    1
    36    13    31    1
    37    18    32    1
    38    20    33    1
    39    21    34    1
    40    22    35    1
    41    23    36    1
    42    23    37    1
