@<TRIPOS>MOLECULE
*****
 47 54 0 0 0
SMALL
GASTEIGER

@<TRIPOS>ATOM
      1 SI          1.4294    3.5971    2.3427 Si      1  UNL1        0.0000
      2 C           0.3397    2.3329    1.5230 C.2     1  UNL1        0.0000
      3 C           1.0621    1.3931    0.8776 C.ar    1  UNL1        0.0000
      4 C           0.4922    0.2675    0.1368 C.ar    1  UNL1        0.0000
      5 C           1.3235   -0.6174   -0.4545 C.ar    1  UNL1        0.0000
      6 C           2.7842   -0.4657   -0.3887 C.ar    1  UNL1        0.0000
      7 C           3.6917   -1.3536   -0.9980 C.ar    1  UNL1        0.0000
      8 C           3.3546   -2.4709   -1.7282 C.ar    1  UNL1        0.0000
      9 S           4.7426   -3.3031   -2.3134 S.2     1  UNL1        0.0000
     10 C           5.8144   -2.1728   -1.5921 C.ar    1  UNL1        0.0000
     11 C           5.1252   -1.1902   -0.9255 C.ar    1  UNL1        0.0000
     12 C           5.7767   -0.1555   -0.2576 C.ar    1  UNL1        0.0000
     13 C           4.8686    0.7376    0.3552 C.ar    1  UNL1        0.0000
     14 C           3.4370    0.6063    0.3037 C.ar    1  UNL1        0.0000
     15 C           2.5336    1.5812    0.9707 C.ar    1  UNL1        0.0000
     16 C           2.9108    2.6634    1.6847 C.2     1  UNL1        0.0000
     17 C          -0.9420    0.0077    0.0106 C.ar    1  UNL1        0.0000
     18 C          -1.6857   -0.8457    0.8554 C.ar    1  UNL1        0.0000
     19 C          -3.1117   -1.0781    0.7131 C.ar    1  UNL1        0.0000
     20 C          -3.8252   -1.9563    1.5961 C.ar    1  UNL1        0.0000
     21 N          -3.3049   -2.6526    2.6245 N.ar    1  UNL1        0.0000
     22 S          -4.5506   -3.5032    3.3117 S.2     1  UNL1        0.0000
     23 N          -5.8171   -3.0386    2.3470 N.ar    1  UNL1        0.0000
     24 C          -5.3131   -2.1899    1.4374 C.ar    1  UNL1        0.0000
     25 C          -6.0612   -1.5556    0.4169 C.ar    1  UNL1        0.0000
     26 C          -5.3516   -0.7006   -0.4379 C.ar    1  UNL1        0.0000
     27 C          -3.9464   -0.4696   -0.3009 C.ar    1  UNL1        0.0000
     28 C          -3.1572    0.3765   -1.1180 C.ar    1  UNL1        0.0000
     29 C          -3.5795    1.1313   -2.1869 C.ar    1  UNL1        0.0000
     30 N          -2.4778    1.7964   -2.6828 N.ar    1  UNL1        0.0000
     31 C          -1.3588    1.4779   -1.9472 C.ar    1  UNL1        0.0000
     32 C          -1.7494    0.5973   -0.9673 C.ar    1  UNL1        0.0000
     33 H           1.3521    3.5554    3.8228 H       1  UNL1        0.0000
     34 H           1.3040    4.9444    1.7354 H       1  UNL1        0.0000
     35 H          -0.7352    2.3969    1.5893 H       1  UNL1        0.0000
     36 H           0.9193   -1.4624   -1.0004 H       1  UNL1        0.0000
     37 H           2.3784   -2.8679   -1.9656 H       1  UNL1        0.0000
     38 H           6.8829   -2.2984   -1.7009 H       1  UNL1        0.0000
     39 H           6.8495   -0.0269   -0.1984 H       1  UNL1        0.0000
     40 H           5.3035    1.5750    0.8986 H       1  UNL1        0.0000
     41 H           3.9061    3.0135    1.8989 H       1  UNL1        0.0000
     42 H          -1.1573   -1.3562    1.6628 H       1  UNL1        0.0000
     43 H          -7.1255   -1.7267    0.3083 H       1  UNL1        0.0000
     44 H          -5.8999   -0.1979   -1.2331 H       1  UNL1        0.0000
     45 H          -4.5471    1.2674   -2.6493 H       1  UNL1        0.0000
     46 H          -2.4884    2.4279   -3.4735 H       1  UNL1        0.0000
     47 H          -0.3967    1.9090   -2.1920 H       1  UNL1        0.0000
@<TRIPOS>BOND
     1     1     2    1
     2     2     3    2
     3     3     4   ar
     4     4     5   ar
     5     5     6   ar
     6     6     7   ar
     7     7     8   ar
     8     8     9   ar
     9     9    10   ar
    10    10    11   ar
    11    11    12   ar
    12    12    13   ar
    13    13    14   ar
    14    14    15   ar
    15    15    16    2
    16     4    17    1
    17    17    18   ar
    18    18    19   ar
    19    19    20   ar
    20    20    21   ar
    21    21    22   ar
    22    22    23   ar
    23    23    24   ar
    24    24    25   ar
    25    25    26   ar
    26    26    27   ar
    27    27    28   ar
    28    28    29   ar
    29    29    30   ar
    30    30    31   ar
    31    31    32   ar
    32    16     1    1
    33    32    17   ar
    34    15     3   ar
    35    27    19   ar
    36    32    28   ar
    37    14     6   ar
    38    24    20   ar
    39    11     7   ar
    40     1    33    1
    41     1    34    1
    42     2    35    1
    43     5    36    1
    44     8    37    1
    45    10    38    1
    46    12    39    1
    47    13    40    1
    48    16    41    1
    49    18    42    1
    50    25    43    1
    51    26    44    1
    52    29    45    1
    53    30    46    1
    54    31    47    1
