@<TRIPOS>MOLECULE
*****
 36 41 0 0 0
SMALL
GASTEIGER

@<TRIPOS>ATOM
      1 C           2.4920   -3.1955   -0.9905 C.3     1  UNL1       -0.0148
      2 C           1.0428   -2.8230   -0.8430 C.2     1  UNL1       -0.0720
      3 C           0.9466   -1.5284   -0.5053 C.ar    1  UNL1       -0.0137
      4 C          -0.2291   -0.7186   -0.2545 C.ar    1  UNL1       -0.0127
      5 C          -1.6368   -1.0530   -0.2909 C.2     1  UNL1       -0.0483
      6 C          -2.3855    0.0246    0.0140 C.2     1  UNL1       -0.0191
      7 C          -1.4506    1.1932    0.2824 C.3     1  UNL1        0.0012
      8 C          -0.0895    0.5894    0.0783 C.ar    1  UNL1       -0.0209
      9 C           1.2347    1.1374    0.1727 C.ar    1  UNL1        0.0256
     10 S           1.5249    2.7709    0.5842 S.2     1  UNL1       -0.0874
     11 C           3.2505    2.5159    0.4571 C.ar    1  UNL1        0.0276
     12 C           4.3962    3.3509    0.6320 C.ar    1  UNL1       -0.0403
     13 C           5.5539    2.6440    0.4083 C.ar    1  UNL1       -0.0227
     14 S           5.2979    1.0031   -0.0061 S.2     1  UNL1       -0.0955
     15 C           3.5676    1.2254    0.1126 C.ar    1  UNL1        0.0347
     16 C           2.4052    0.4207   -0.0539 C.ar    1  UNL1        0.0112
     17 C           2.2964   -0.9569   -0.4056 C.ar    1  UNL1       -0.0119
     18 C           3.1999   -1.9057   -0.6826 C.2     1  UNL1       -0.0719
     19 C          -3.8042    0.0324    0.0661 C.ar    1  UNL1        0.0428
     20 C          -4.7048    1.0426    0.3549 C.ar    1  UNL1       -0.0367
     21 C          -6.0123    0.5079    0.2653 C.ar    1  UNL1       -0.0438
     22 C          -5.8848   -0.8175   -0.0761 C.ar    1  UNL1        0.0022
     23 N          -4.5471   -1.0968   -0.1945 N.ar    1  UNL1       -0.3609
     24 H           2.7713   -3.9769   -0.2777 H       1  UNL1        0.0350
     25 H           2.7099   -3.5299   -2.0091 H       1  UNL1        0.0350
     26 H           0.2229   -3.5081   -0.9908 H       1  UNL1        0.0581
     27 H          -1.9755   -2.0466   -0.5358 H       1  UNL1        0.0627
     28 H          -1.6321    2.0076   -0.4270 H       1  UNL1        0.0363
     29 H          -1.5706    1.5599    1.3074 H       1  UNL1        0.0363
     30 H           4.3627    4.3982    0.9035 H       1  UNL1        0.0634
     31 H           6.5676    3.0169    0.4686 H       1  UNL1        0.0694
     32 H           4.2721   -1.7924   -0.6914 H       1  UNL1        0.0581
     33 H          -4.4476    2.0638    0.6055 H       1  UNL1        0.0639
     34 H          -6.9431    1.0341    0.4321 H       1  UNL1        0.0633
     35 H          -6.6267   -1.5862   -0.2451 H       1  UNL1        0.0807
     36 H          -4.1745   -2.0033   -0.4377 H       1  UNL1        0.1653
@<TRIPOS>BOND
     1     1     2    1
     2     2     3    2
     3     3     4   ar
     4     4     5    1
     5     5     6    2
     6     6     7    1
     7     7     8    1
     8     8     9   ar
     9     9    10   ar
    10    10    11   ar
    11    11    12   ar
    12    12    13   ar
    13    13    14   ar
    14    14    15   ar
    15    15    16   ar
    16    16    17   ar
    17    17    18    2
    18     6    19    1
    19    19    20   ar
    20    20    21   ar
    21    21    22   ar
    22    22    23   ar
    23    18     1    1
    24    23    19   ar
    25    17     3   ar
    26     8     4   ar
    27    16     9   ar
    28    15    11   ar
    29     1    24    1
    30     1    25    1
    31     2    26    1
    32     5    27    1
    33     7    28    1
    34     7    29    1
    35    12    30    1
    36    13    31    1
    37    18    32    1
    38    20    33    1
    39    21    34    1
    40    22    35    1
    41    23    36    1
