@<TRIPOS>MOLECULE
*****
 48 55 0 0 0
SMALL
GASTEIGER

@<TRIPOS>ATOM
      1 C          -1.3230   -0.2978   -4.0303 C.3     1  UNL1        0.0000
      2 C          -2.7128   -0.1194   -3.5179 C.2     1  UNL1        0.0000
      3 C          -2.6784    0.0155   -2.1838 C.ar    1  UNL1        0.0000
      4 C          -3.7683    0.2085   -1.2689 C.ar    1  UNL1        0.0000
      5 C          -5.1909    0.3019   -1.6103 C.2     1  UNL1        0.0000
      6 C          -6.0266    0.4844   -0.5764 C.2     1  UNL1        0.0000
      7 SI         -5.0654    0.5613    1.0083 Si      1  UNL1        0.0000
      8 C          -3.4545    0.3168    0.0550 C.ar    1  UNL1        0.0000
      9 C          -2.0688    0.2504    0.6237 C.ar    1  UNL1        0.0000
     10 C          -0.9953    0.0632   -0.2520 C.ar    1  UNL1        0.0000
     11 C           0.3911   -0.0069    0.2761 C.ar    1  UNL1        0.0000
     12 C           1.6601   -0.2026   -0.5128 C.3     1  UNL1        0.0000
     13 C           2.7387   -0.1898    0.5473 C.2     1  UNL1        0.0000
     14 C           2.1526   -0.0135    1.7440 C.2     1  UNL1        0.0000
     15 C           0.7235    0.0977    1.5777 C.ar    1  UNL1        0.0000
     16 C          -0.3251    0.2896    2.5236 C.ar    1  UNL1        0.0000
     17 C          -0.2348    0.4186    3.8540 C.2     1  UNL1        0.0000
     18 C          -1.6021    0.5992    4.4165 C.3     1  UNL1        0.0000
     19 C          -2.4616    0.5494    3.1850 C.2     1  UNL1        0.0000
     20 C          -1.7197    0.3686    2.0749 C.ar    1  UNL1        0.0000
     21 C           4.1683   -0.3459    0.2778 C.ar    1  UNL1        0.0000
     22 C           5.1734   -0.3331    1.2593 C.ar    1  UNL1        0.0000
     23 N           6.5327   -0.4716    1.0983 N.ar    1  UNL1        0.0000
     24 C           7.0676   -0.6491   -0.1409 C.ar    1  UNL1        0.0000
     25 C           6.1908   -0.6857   -1.2409 C.ar    1  UNL1        0.0000
     26 N           6.5402   -0.8514   -2.5268 N.ar    1  UNL1        0.0000
     27 S           5.1338   -0.8172   -3.4020 S.2     1  UNL1        0.0000
     28 N           4.0245   -0.5915   -2.1934 N.ar    1  UNL1        0.0000
     29 C           4.7001   -0.5302   -1.0294 C.ar    1  UNL1        0.0000
     30 C          -1.3050   -0.0581   -1.6964 C.ar    1  UNL1        0.0000
     31 C          -0.5117   -0.2407   -2.7694 C.2     1  UNL1        0.0000
     32 H          -1.0453    0.5094   -4.7143 H       1  UNL1        0.0000
     33 H          -1.2053   -1.2632   -4.5311 H       1  UNL1        0.0000
     34 H          -3.5914   -0.1046   -4.1429 H       1  UNL1        0.0000
     35 H          -5.5269    0.2262   -2.6367 H       1  UNL1        0.0000
     36 H          -7.0999    0.5775   -0.6163 H       1  UNL1        0.0000
     37 H          -5.3915   -0.5748    1.9074 H       1  UNL1        0.0000
     38 H          -5.1678    1.8957    1.6519 H       1  UNL1        0.0000
     39 H           1.8079    0.6266   -1.2126 H       1  UNL1        0.0000
     40 H           1.6464   -1.1694   -1.0267 H       1  UNL1        0.0000
     41 H           2.6286    0.0436    2.7103 H       1  UNL1        0.0000
     42 H           0.6697    0.3978    4.4412 H       1  UNL1        0.0000
     43 H          -1.6989    1.5631    4.9247 H       1  UNL1        0.0000
     44 H          -1.8578   -0.2095    5.1074 H       1  UNL1        0.0000
     45 H          -3.5246    0.6546    3.2825 H       1  UNL1        0.0000
     46 H           4.9036   -0.1993    2.3069 H       1  UNL1        0.0000
     47 H           8.1414   -0.7534   -0.2202 H       1  UNL1        0.0000
     48 H           0.5582   -0.3407   -2.8014 H       1  UNL1        0.0000
@<TRIPOS>BOND
     1     1     2    1
     2     2     3    2
     3     3     4   ar
     4     4     5    1
     5     5     6    2
     6     6     7    1
     7     7     8    1
     8     8     9   ar
     9     9    10   ar
    10    10    11   ar
    11    11    12    1
    12    12    13    1
    13    13    14    2
    14    14    15    1
    15    15    16   ar
    16    16    17    2
    17    17    18    1
    18    18    19    1
    19    19    20    2
    20    13    21    1
    21    21    22   ar
    22    22    23   ar
    23    23    24   ar
    24    24    25   ar
    25    25    26   ar
    26    26    27   ar
    27    27    28   ar
    28    28    29   ar
    29    10    30   ar
    30    30    31    2
    31    31     1    1
    32    30     3   ar
    33     8     4   ar
    34    20     9   ar
    35    29    21   ar
    36    15    11   ar
    37    20    16   ar
    38    29    25   ar
    39     1    32    1
    40     1    33    1
    41     2    34    1
    42     5    35    1
    43     6    36    1
    44     7    37    1
    45     7    38    1
    46    12    39    1
    47    12    40    1
    48    14    41    1
    49    17    42    1
    50    18    43    1
    51    18    44    1
    52    19    45    1
    53    22    46    1
    54    24    47    1
    55    31    48    1
