@<TRIPOS>MOLECULE
*****
 41 47 0 0 0
SMALL
GASTEIGER

@<TRIPOS>ATOM
      1 C          -0.9619    3.8068    0.0977 C.3     1  UNL1        0.0000
      2 C          -2.3394    3.2149    0.1090 C.2     1  UNL1        0.0000
      3 C          -2.2559    1.8751    0.0848 C.ar    1  UNL1        0.0000
      4 C          -3.3219    0.8927    0.0846 C.ar    1  UNL1        0.0000
      5 C          -4.7615    1.1780    0.1119 C.2     1  UNL1        0.0000
      6 C          -5.5698    0.1055    0.1061 C.2     1  UNL1        0.0000
      7 SI         -4.5664   -1.4548    0.0638 Si      1  UNL1        0.0000
      8 C          -2.9938   -0.4354    0.0568 C.ar    1  UNL1        0.0000
      9 C          -1.5871   -0.9089    0.0268 C.ar    1  UNL1        0.0000
     10 C          -1.1091   -2.2380   -0.0034 C.ar    1  UNL1        0.0000
     11 C          -1.7884   -3.4395   -0.0134 C.ar    1  UNL1        0.0000
     12 O          -0.9232   -4.5085   -0.0451 O.2     1  UNL1        0.0000
     13 C           0.3494   -4.0102   -0.0564 C.ar    1  UNL1        0.0000
     14 C           0.2419   -2.6585   -0.0317 C.ar    1  UNL1        0.0000
     15 C           1.2570   -1.6839   -0.0308 C.ar    1  UNL1        0.0000
     16 C           2.6418   -1.7822   -0.0541 C.ar    1  UNL1        0.0000
     17 C           3.0718   -0.4623   -0.0382 C.ar    1  UNL1        0.0000
     18 O           1.9901    0.3913   -0.0067 O.2     1  UNL1        0.0000
     19 C           0.8479   -0.3706   -0.0020 C.ar    1  UNL1        0.0000
     20 C          -0.5015    0.0533    0.0263 C.ar    1  UNL1        0.0000
     21 C          -0.8508    1.4807    0.0562 C.ar    1  UNL1        0.0000
     22 C          -0.0895    2.5880    0.0633 C.2     1  UNL1        0.0000
     23 C           4.3915    0.1540   -0.0482 C.ar    1  UNL1        0.0000
     24 N           4.4589    1.4871   -0.0264 N.ar    1  UNL1        0.0000
     25 C           5.6979    1.9649   -0.0375 C.ar    1  UNL1        0.0000
     26 N           6.8160    1.2421   -0.0673 N.ar    1  UNL1        0.0000
     27 C           6.6128   -0.0734   -0.0867 C.ar    1  UNL1        0.0000
     28 N           5.4321   -0.6844   -0.0787 N.ar    1  UNL1        0.0000
     29 H          -0.7789    4.3977    0.9999 H       1  UNL1        0.0000
     30 H          -0.8067    4.4283   -0.7890 H       1  UNL1        0.0000
     31 H          -3.2447    3.8005    0.1331 H       1  UNL1        0.0000
     32 H          -5.1293    2.1961    0.1350 H       1  UNL1        0.0000
     33 H          -6.6480    0.1065    0.1229 H       1  UNL1        0.0000
     34 H          -4.7191   -2.2637    1.2984 H       1  UNL1        0.0000
     35 H          -4.7579   -2.2212   -1.1923 H       1  UNL1        0.0000
     36 H          -2.8220   -3.7453   -0.0025 H       1  UNL1        0.0000
     37 H           1.1495   -4.7354   -0.0813 H       1  UNL1        0.0000
     38 H           3.2756   -2.6567   -0.0789 H       1  UNL1        0.0000
     39 H           0.9888    2.6311    0.0472 H       1  UNL1        0.0000
     40 H           5.8095    3.0438   -0.0208 H       1  UNL1        0.0000
     41 H           7.4943   -0.7054   -0.1112 H       1  UNL1        0.0000
@<TRIPOS>BOND
     1     1     2    1
     2     2     3    2
     3     3     4   ar
     4     4     5    1
     5     5     6    2
     6     6     7    1
     7     7     8    1
     8     8     9   ar
     9     9    10   ar
    10    10    11   ar
    11    11    12   ar
    12    12    13   ar
    13    13    14   ar
    14    14    15   ar
    15    15    16   ar
    16    16    17   ar
    17    17    18   ar
    18    18    19   ar
    19    19    20   ar
    20    20    21   ar
    21    21    22    2
    22    17    23    1
    23    23    24   ar
    24    24    25   ar
    25    25    26   ar
    26    26    27   ar
    27    27    28   ar
    28    22     1    1
    29    28    23   ar
    30    21     3   ar
    31     8     4   ar
    32    20     9   ar
    33    14    10   ar
    34    19    15   ar
    35     1    29    1
    36     1    30    1
    37     2    31    1
    38     5    32    1
    39     6    33    1
    40     7    34    1
    41     7    35    1
    42    11    36    1
    43    13    37    1
    44    16    38    1
    45    22    39    1
    46    25    40    1
    47    27    41    1
