@<TRIPOS>MOLECULE
*****
 43 50 0 0 0
SMALL
GASTEIGER

@<TRIPOS>ATOM
      1 C           2.5026   -3.1004    2.1043 C.3     1  UNL1        0.0000
      2 C           3.6700   -2.3117    1.6049 C.2     1  UNL1        0.0000
      3 C           3.2297   -1.2839    0.8626 C.ar    1  UNL1        0.0000
      4 C           4.0053   -0.3759    0.0536 C.ar    1  UNL1        0.0000
      5 C           5.4601   -0.2076    0.0541 C.2     1  UNL1        0.0000
      6 C           5.9404    0.7133   -0.7981 C.2     1  UNL1        0.0000
      7 SI          4.5497    1.5089   -1.7615 Si      1  UNL1        0.0000
      8 C           3.3302    0.4139   -0.8257 C.ar    1  UNL1        0.0000
      9 C           1.8446    0.4428   -0.9106 C.ar    1  UNL1        0.0000
     10 C           1.1444    1.1652   -1.9201 C.ar    1  UNL1        0.0000
     11 N           1.6742    1.8146   -2.9728 N.ar    1  UNL1        0.0000
     12 S           0.4350    2.4426   -3.8611 S.2     1  UNL1        0.0000
     13 N          -0.8515    1.9498   -2.9537 N.ar    1  UNL1        0.0000
     14 C          -0.3626    1.2627   -1.9037 C.ar    1  UNL1        0.0000
     15 C          -1.1436    0.6982   -0.8430 C.ar    1  UNL1        0.0000
     16 C          -2.5613    0.8926   -0.8663 C.ar    1  UNL1        0.0000
     17 C          -3.4426    0.4638    0.1445 C.ar    1  UNL1        0.0000
     18 C          -4.8856    0.6593    0.0797 C.ar    1  UNL1        0.0000
     19 N          -5.6788   -0.3287    0.4992 N.ar    1  UNL1        0.0000
     20 C          -6.9808   -0.0853    0.3809 C.ar    1  UNL1        0.0000
     21 N          -7.5286    1.0145   -0.1291 N.ar    1  UNL1        0.0000
     22 C          -6.6410    1.9163   -0.5380 C.ar    1  UNL1        0.0000
     23 N          -5.3168    1.7996   -0.4720 N.ar    1  UNL1        0.0000
     24 C          -2.7997   -0.1136    1.2677 C.ar    1  UNL1        0.0000
     25 N          -3.3968   -0.4936    2.4122 N.ar    1  UNL1        0.0000
     26 S          -2.2216   -1.0145    3.4406 S.2     1  UNL1        0.0000
     27 N          -0.8896   -0.7947    2.4984 N.ar    1  UNL1        0.0000
     28 C          -1.2868   -0.3365    1.2977 C.ar    1  UNL1        0.0000
     29 C          -0.4165   -0.0061    0.1764 C.ar    1  UNL1        0.0000
     30 C           1.0178   -0.2461    0.0558 C.ar    1  UNL1        0.0000
     31 C           1.7658   -1.2632    0.8538 C.ar    1  UNL1        0.0000
     32 C           1.3441   -2.3641    1.5019 C.2     1  UNL1        0.0000
     33 H           2.5424   -4.1310    1.7397 H       1  UNL1        0.0000
     34 H           2.4528   -3.0966    3.1968 H       1  UNL1        0.0000
     35 H           4.6990   -2.5957    1.7600 H       1  UNL1        0.0000
     36 H           6.0905   -0.7908    0.7134 H       1  UNL1        0.0000
     37 H           6.9723    0.9888   -0.9457 H       1  UNL1        0.0000
     38 H           4.4206    2.9489   -1.4214 H       1  UNL1        0.0000
     39 H           4.6733    1.1791   -3.2039 H       1  UNL1        0.0000
     40 H          -3.0017    1.4128   -1.7227 H       1  UNL1        0.0000
     41 H          -7.6580   -0.8573    0.7299 H       1  UNL1        0.0000
     42 H          -7.0328    2.8322   -0.9674 H       1  UNL1        0.0000
     43 H           0.3316   -2.7228    1.5888 H       1  UNL1        0.0000
@<TRIPOS>BOND
     1     1     2    1
     2     2     3    2
     3     3     4   ar
     4     4     5    1
     5     5     6    2
     6     6     7    1
     7     7     8    1
     8     8     9   ar
     9     9    10   ar
    10    10    11   ar
    11    11    12   ar
    12    12    13   ar
    13    13    14   ar
    14    14    15   ar
    15    15    16   ar
    16    16    17   ar
    17    17    18    1
    18    18    19   ar
    19    19    20   ar
    20    20    21   ar
    21    21    22   ar
    22    22    23   ar
    23    17    24   ar
    24    24    25   ar
    25    25    26   ar
    26    26    27   ar
    27    27    28   ar
    28    28    29   ar
    29    29    30   ar
    30    30    31   ar
    31    31    32    2
    32    32     1    1
    33    31     3   ar
    34     8     4   ar
    35    30     9   ar
    36    14    10   ar
    37    29    15   ar
    38    23    18   ar
    39    28    24   ar
    40     1    33    1
    41     1    34    1
    42     2    35    1
    43     5    36    1
    44     6    37    1
    45     7    38    1
    46     7    39    1
    47    16    40    1
    48    20    41    1
    49    22    42    1
    50    32    43    1
