@<TRIPOS>MOLECULE
*****
 41 46 0 0 0
SMALL
GASTEIGER

@<TRIPOS>ATOM
      1 C          -1.9407   -3.1263    1.0730 C.3     1  UNL1        0.0000
      2 C          -3.2038   -2.3519    0.8876 C.2     1  UNL1        0.0000
      3 C          -2.9141   -1.1225    0.4347 C.ar    1  UNL1        0.0000
      4 C          -3.8271   -0.0470    0.1177 C.ar    1  UNL1        0.0000
      5 C          -5.2896   -0.0631    0.2242 C.2     1  UNL1        0.0000
      6 C          -5.9150    1.0718   -0.1338 C.2     1  UNL1        0.0000
      7 SI         -4.6797    2.3598   -0.6740 Si      1  UNL1        0.0000
      8 C          -3.3001    1.1249   -0.3328 C.ar    1  UNL1        0.0000
      9 C          -1.8412    1.3648   -0.5176 C.ar    1  UNL1        0.0000
     10 C          -1.3492    2.5906   -0.9850 C.ar    1  UNL1        0.0000
     11 C           0.0209    2.8110   -1.1560 C.ar    1  UNL1        0.0000
     12 C           0.9342    1.7886   -0.8552 C.ar    1  UNL1        0.0000
     13 C           2.3498    1.7089   -0.9223 C.ar    1  UNL1        0.0000
     14 C           2.7452    0.4523   -0.5030 C.ar    1  UNL1        0.0000
     15 N           1.5825   -0.2153   -0.1876 N.ar    1  UNL1        0.0000
     16 C           0.4603    0.5605   -0.3882 C.ar    1  UNL1        0.0000
     17 C          -0.9186    0.3111   -0.2076 C.ar    1  UNL1        0.0000
     18 C          -1.4616   -0.9756    0.2832 C.ar    1  UNL1        0.0000
     19 C          -0.8910   -2.1373    0.6522 C.2     1  UNL1        0.0000
     20 C           4.0898   -0.1166   -0.3914 C.ar    1  UNL1        0.0000
     21 C           4.3460   -1.4107    0.0513 C.ar    1  UNL1        0.0000
     22 C           5.6684   -1.8481    0.1176 C.ar    1  UNL1        0.0000
     23 C           6.6918   -0.9874   -0.2574 C.ar    1  UNL1        0.0000
     24 C           6.3490    0.2825   -0.6856 C.ar    1  UNL1        0.0000
     25 N           5.0780    0.7326   -0.7598 N.ar    1  UNL1        0.0000
     26 H          -1.8066   -3.4212    2.1178 H       1  UNL1        0.0000
     27 H          -1.9229   -4.0140    0.4340 H       1  UNL1        0.0000
     28 H          -4.1878   -2.7429    1.0926 H       1  UNL1        0.0000
     29 H          -5.8148   -0.9437    0.5716 H       1  UNL1        0.0000
     30 H          -6.9770    1.2577   -0.1262 H       1  UNL1        0.0000
     31 H          -4.8114    2.6974   -2.1135 H       1  UNL1        0.0000
     32 H          -4.6493    3.5290    0.2400 H       1  UNL1        0.0000
     33 H          -2.0095    3.4160   -1.2325 H       1  UNL1        0.0000
     34 H           0.3764    3.7711   -1.5201 H       1  UNL1        0.0000
     35 H           3.0248    2.4919   -1.2454 H       1  UNL1        0.0000
     36 H           1.5567   -1.1596    0.1506 H       1  UNL1        0.0000
     37 H           0.1492   -2.3989    0.6713 H       1  UNL1        0.0000
     38 H           3.5525   -2.0856    0.3447 H       1  UNL1        0.0000
     39 H           5.8966   -2.8536    0.4596 H       1  UNL1        0.0000
     40 H           7.7299   -1.2970   -0.2174 H       1  UNL1        0.0000
     41 H           7.1092    0.9958   -0.9904 H       1  UNL1        0.0000
@<TRIPOS>BOND
     1     1     2    1
     2     2     3    2
     3     3     4   ar
     4     4     5    1
     5     5     6    2
     6     6     7    1
     7     7     8    1
     8     8     9   ar
     9     9    10   ar
    10    10    11   ar
    11    11    12   ar
    12    12    13   ar
    13    13    14   ar
    14    14    15   ar
    15    15    16   ar
    16    16    17   ar
    17    17    18   ar
    18    18    19    2
    19    14    20    1
    20    20    21   ar
    21    21    22   ar
    22    22    23   ar
    23    23    24   ar
    24    24    25   ar
    25    19     1    1
    26    25    20   ar
    27    18     3   ar
    28     8     4   ar
    29    17     9   ar
    30    16    12   ar
    31     1    26    1
    32     1    27    1
    33     2    28    1
    34     5    29    1
    35     6    30    1
    36     7    31    1
    37     7    32    1
    38    10    33    1
    39    11    34    1
    40    13    35    1
    41    15    36    1
    42    19    37    1
    43    21    38    1
    44    22    39    1
    45    23    40    1
    46    24    41    1
