@<TRIPOS>MOLECULE
*****
 42 47 0 0 0
SMALL
GASTEIGER

@<TRIPOS>ATOM
      1 C          -3.0472   -3.3518   -0.5882 C.3     1  UNL1        0.0000
      2 C          -4.0673   -2.3578   -0.1392 C.2     1  UNL1        0.0000
      3 C          -3.4810   -1.1641    0.0381 C.ar    1  UNL1        0.0000
      4 C          -4.1085    0.0985    0.3442 C.ar    1  UNL1        0.0000
      5 C          -5.5136    0.3466    0.6764 C.2     1  UNL1        0.0000
      6 C          -5.8400    1.6302    0.9087 C.2     1  UNL1        0.0000
      7 SI         -4.3485    2.7339    0.7269 Si      1  UNL1        0.0000
      8 C          -3.3256    1.2089    0.3085 C.ar    1  UNL1        0.0000
      9 C          -1.8660    1.1798    0.0342 C.ar    1  UNL1        0.0000
     10 C          -1.1013    2.3358   -0.0416 C.ar    1  UNL1        0.0000
     11 N           0.2357    2.3677   -0.2167 N.ar    1  UNL1        0.0000
     12 C           0.8977    1.2074   -0.2641 C.ar    1  UNL1        0.0000
     13 C           2.2826    1.2856   -0.3738 C.ar    1  UNL1        0.0000
     14 C           3.1163    0.1599   -0.3820 C.ar    1  UNL1        0.0000
     15 C           2.5015   -1.0821   -0.2503 C.ar    1  UNL1        0.0000
     16 C           1.1088   -1.1840   -0.1492 C.ar    1  UNL1        0.0000
     17 C           0.2608   -0.0499   -0.1917 C.ar    1  UNL1        0.0000
     18 C          -1.1709   -0.0551   -0.1284 C.ar    1  UNL1        0.0000
     19 C          -2.0411   -1.2658   -0.2274 C.ar    1  UNL1        0.0000
     20 C          -1.7977   -2.5221   -0.6458 C.2     1  UNL1        0.0000
     21 C           4.5780    0.2767   -0.4966 C.2     1  UNL1        0.0000
     22 C           5.3120    1.3911   -0.6758 C.2     1  UNL1        0.0000
     23 C           6.7118    1.0575   -0.7379 C.2     1  UNL1        0.0000
     24 C           6.8601   -0.2659   -0.6003 C.2     1  UNL1        0.0000
     25 C           5.5141   -0.9091   -0.4331 C.3     1  UNL1        0.0000
     26 H          -2.9455   -4.1724    0.1277 H       1  UNL1        0.0000
     27 H          -3.2969   -3.7518   -1.5754 H       1  UNL1        0.0000
     28 H          -5.1194   -2.5755   -0.0417 H       1  UNL1        0.0000
     29 H          -6.2276   -0.4657    0.7289 H       1  UNL1        0.0000
     30 H          -6.8140    2.0142    1.1672 H       1  UNL1        0.0000
     31 H          -4.4594    3.6679   -0.4201 H       1  UNL1        0.0000
     32 H          -3.9364    3.3573    2.0080 H       1  UNL1        0.0000
     33 H          -1.5347    3.3279    0.0350 H       1  UNL1        0.0000
     34 H           2.7118    2.2828   -0.4402 H       1  UNL1        0.0000
     35 H           3.0838   -1.9993   -0.2128 H       1  UNL1        0.0000
     36 H           0.7075   -2.1766    0.0146 H       1  UNL1        0.0000
     37 H          -0.8757   -2.9280   -1.0239 H       1  UNL1        0.0000
     38 H           4.9552    2.4055   -0.7684 H       1  UNL1        0.0000
     39 H           7.5022    1.7798   -0.8750 H       1  UNL1        0.0000
     40 H           7.7984   -0.7991   -0.6074 H       1  UNL1        0.0000
     41 H           5.4527   -1.4217    0.5323 H       1  UNL1        0.0000
     42 H           5.3271   -1.6175   -1.2467 H       1  UNL1        0.0000
@<TRIPOS>BOND
     1     1     2    1
     2     2     3    2
     3     3     4   ar
     4     4     5    1
     5     5     6    2
     6     6     7    1
     7     7     8    1
     8     8     9   ar
     9     9    10   ar
    10    10    11   ar
    11    11    12   ar
    12    12    13   ar
    13    13    14   ar
    14    14    15   ar
    15    15    16   ar
    16    16    17   ar
    17    17    18   ar
    18    18    19   ar
    19    19    20    2
    20    14    21    1
    21    21    22    2
    22    22    23    1
    23    23    24    2
    24    24    25    1
    25    20     1    1
    26    25    21    1
    27    19     3   ar
    28     8     4   ar
    29    18     9   ar
    30    17    12   ar
    31     1    26    1
    32     1    27    1
    33     2    28    1
    34     5    29    1
    35     6    30    1
    36     7    31    1
    37     7    32    1
    38    10    33    1
    39    13    34    1
    40    15    35    1
    41    16    36    1
    42    20    37    1
    43    22    38    1
    44    23    39    1
    45    24    40    1
    46    25    41    1
    47    25    42    1
