@<TRIPOS>MOLECULE
*****
 46 53 0 0 0
SMALL
GASTEIGER

@<TRIPOS>ATOM
      1 C          -3.6136    3.3430   -0.0876 C.3     1  UNL1        0.0000
      2 C          -4.6345    2.2485   -0.0835 C.2     1  UNL1        0.0000
      3 C          -4.0135    1.0599   -0.1109 C.ar    1  UNL1        0.0000
      4 C          -4.5881   -0.2519   -0.2982 C.ar    1  UNL1        0.0000
      5 C          -5.9986   -0.6394   -0.3028 C.2     1  UNL1        0.0000
      6 C          -6.2370   -1.9432   -0.5347 C.2     1  UNL1        0.0000
      7 SI         -4.6229   -2.8841   -0.7935 Si      1  UNL1        0.0000
      8 C          -3.7253   -1.2734   -0.5346 C.ar    1  UNL1        0.0000
      9 C          -2.2577   -1.1340   -0.5344 C.ar    1  UNL1        0.0000
     10 N          -1.5569   -2.2404   -0.8693 N.ar    1  UNL1        0.0000
     11 C          -0.2088   -2.1647   -0.8115 C.ar    1  UNL1        0.0000
     12 C           0.5225   -1.0786   -0.3429 C.ar    1  UNL1        0.0000
     13 C           1.9662   -1.1786   -0.2820 C.ar    1  UNL1        0.0000
     14 C           2.8524   -0.2051    0.2517 C.ar    1  UNL1        0.0000
     15 C           4.2996   -0.3243    0.3140 C.ar    1  UNL1        0.0000
     16 N           4.9631    0.1349    1.4296 N.ar    1  UNL1        0.0000
     17 C           6.3236    0.0367    1.5558 C.ar    1  UNL1        0.0000
     18 C           7.2157   -0.5054    0.6398 C.ar    1  UNL1        0.0000
     19 C           6.5926   -0.9895   -0.5241 C.ar    1  UNL1        0.0000
     20 N           7.2281   -1.5573   -1.5613 N.ar    1  UNL1        0.0000
     21 S           6.0627   -1.9445   -2.6758 S.2     1  UNL1        0.0000
     22 N           4.6993   -1.4213   -1.8903 N.ar    1  UNL1        0.0000
     23 C           5.0984   -0.9079   -0.7106 C.ar    1  UNL1        0.0000
     24 C           2.0952    0.8465    0.7711 C.ar    1  UNL1        0.0000
     25 C           2.5545    1.9388    1.4647 C.ar    1  UNL1        0.0000
     26 O           1.5034    2.6872    1.9013 O.2     1  UNL1        0.0000
     27 C           0.3632    2.0752    1.4709 C.ar    1  UNL1        0.0000
     28 C           0.6655    0.9818    0.6968 C.ar    1  UNL1        0.0000
     29 C          -0.2365    0.0661    0.0721 C.ar    1  UNL1        0.0000
     30 C          -1.6503    0.0872   -0.1499 C.ar    1  UNL1        0.0000
     31 C          -2.5600    1.2551   -0.0717 C.ar    1  UNL1        0.0000
     32 C          -2.3232    2.5768   -0.1396 C.2     1  UNL1        0.0000
     33 H          -3.7258    3.9782   -0.9713 H       1  UNL1        0.0000
     34 H          -3.6769    3.9541    0.8173 H       1  UNL1        0.0000
     35 H          -5.6989    2.4149   -0.1431 H       1  UNL1        0.0000
     36 H          -6.7810    0.0879   -0.1278 H       1  UNL1        0.0000
     37 H          -7.1941   -2.4372   -0.5802 H       1  UNL1        0.0000
     38 H          -4.4385   -3.8802    0.2936 H       1  UNL1        0.0000
     39 H          -4.5660   -3.4165   -2.1796 H       1  UNL1        0.0000
     40 H           0.2897   -3.0747   -1.1407 H       1  UNL1        0.0000
     41 H           2.4129   -2.1029   -0.6600 H       1  UNL1        0.0000
     42 H           6.7026    0.4409    2.4949 H       1  UNL1        0.0000
     43 H           8.2827   -0.5509    0.8027 H       1  UNL1        0.0000
     44 H           3.5296    2.2955    1.7659 H       1  UNL1        0.0000
     45 H          -0.5471    2.5357    1.8241 H       1  UNL1        0.0000
     46 H          -1.3682    3.0611   -0.2652 H       1  UNL1        0.0000
@<TRIPOS>BOND
     1     1     2    1
     2     2     3    2
     3     3     4   ar
     4     4     5    1
     5     5     6    2
     6     6     7    1
     7     7     8    1
     8     8     9   ar
     9     9    10   ar
    10    10    11   ar
    11    11    12   ar
    12    12    13   ar
    13    13    14   ar
    14    14    15    1
    15    15    16   ar
    16    16    17   ar
    17    17    18   ar
    18    18    19   ar
    19    19    20   ar
    20    20    21   ar
    21    21    22   ar
    22    22    23   ar
    23    14    24   ar
    24    24    25   ar
    25    25    26   ar
    26    26    27   ar
    27    27    28   ar
    28    28    29   ar
    29    29    30   ar
    30    30    31   ar
    31    31    32    2
    32    32     1    1
    33    31     3   ar
    34     8     4   ar
    35    30     9   ar
    36    29    12   ar
    37    23    15   ar
    38    28    24   ar
    39    23    19   ar
    40     1    33    1
    41     1    34    1
    42     2    35    1
    43     5    36    1
    44     6    37    1
    45     7    38    1
    46     7    39    1
    47    11    40    1
    48    13    41    1
    49    17    42    1
    50    18    43    1
    51    25    44    1
    52    27    45    1
    53    32    46    1
