@<TRIPOS>MOLECULE
*****
 38 44 0 0 0
SMALL
GASTEIGER

@<TRIPOS>ATOM
      1 C          -3.2982    2.9605    1.6290 C.3     1  UNL1        0.0000
      2 C          -4.2409    1.8971    1.1276 C.2     1  UNL1        0.0000
      3 C          -3.5373    0.8810    0.6049 C.ar    1  UNL1        0.0000
      4 C          -3.9930   -0.3693   -0.0025 C.ar    1  UNL1        0.0000
      5 C          -5.3653   -0.8402   -0.1987 C.2     1  UNL1        0.0000
      6 C          -5.4813   -2.0441   -0.7923 C.2     1  UNL1        0.0000
      7 SI         -3.7816   -2.7689   -1.1976 Si      1  UNL1        0.0000
      8 C          -3.0531   -1.2450   -0.4620 C.ar    1  UNL1        0.0000
      9 C          -1.6658   -0.9419   -0.3495 C.ar    1  UNL1        0.0000
     10 O          -0.6001   -1.7251   -0.7666 O.2     1  UNL1        0.0000
     11 C           0.5163   -1.0104   -0.4429 C.ar    1  UNL1        0.0000
     12 C           1.9030   -1.1312   -0.5408 C.ar    1  UNL1        0.0000
     13 C           2.3620    0.0518    0.0329 C.ar    1  UNL1        0.0000
     14 O           1.2983    0.8427    0.4541 O.2     1  UNL1        0.0000
     15 C           0.1798    0.1451    0.1389 C.ar    1  UNL1        0.0000
     16 C          -1.1980    0.2428    0.2250 C.ar    1  UNL1        0.0000
     17 C          -2.1063    1.1972    0.7227 C.ar    1  UNL1        0.0000
     18 C          -1.9454    2.3882    1.3086 C.2     1  UNL1        0.0000
     19 C           3.7188    0.4823    0.2088 C.ar    1  UNL1        0.0000
     20 S           4.1625    1.9935    0.9456 S.2     1  UNL1        0.0000
     21 C           5.8704    1.7151    0.7603 C.ar    1  UNL1        0.0000
     22 C           6.0238    0.5160    0.1617 C.ar    1  UNL1        0.0000
     23 C           7.0403   -0.3387   -0.2901 C.ar    1  UNL1        0.0000
     24 C           6.3687   -1.4470   -0.8209 C.ar    1  UNL1        0.0000
     25 O           4.9904   -1.3669   -0.7430 O.2     1  UNL1        0.0000
     26 C           4.8596   -0.1518   -0.1371 C.ar    1  UNL1        0.0000
     27 H          -3.4593    3.9063    1.1034 H       1  UNL1        0.0000
     28 H          -3.4158    3.1119    2.7061 H       1  UNL1        0.0000
     29 H          -5.3158    1.9638    1.1898 H       1  UNL1        0.0000
     30 H          -6.2124   -0.2455    0.1190 H       1  UNL1        0.0000
     31 H          -6.3905   -2.5730   -1.0298 H       1  UNL1        0.0000
     32 H          -3.5464   -4.0095   -0.4158 H       1  UNL1        0.0000
     33 H          -3.6074   -2.8935   -2.6672 H       1  UNL1        0.0000
     34 H           2.4833   -1.9396   -0.9573 H       1  UNL1        0.0000
     35 H          -1.0029    2.8692    1.5215 H       1  UNL1        0.0000
     36 H           6.6000    2.4371    1.0980 H       1  UNL1        0.0000
     37 H           8.1115   -0.2022   -0.2522 H       1  UNL1        0.0000
     38 H           6.7281   -2.3578   -1.2824 H       1  UNL1        0.0000
@<TRIPOS>BOND
     1     1     2    1
     2     2     3    2
     3     3     4   ar
     4     4     5    1
     5     5     6    2
     6     6     7    1
     7     7     8    1
     8     8     9   ar
     9     9    10   ar
    10    10    11   ar
    11    11    12   ar
    12    12    13   ar
    13    13    14   ar
    14    14    15   ar
    15    15    16   ar
    16    16    17   ar
    17    17    18    2
    18    13    19    1
    19    19    20   ar
    20    20    21   ar
    21    21    22   ar
    22    22    23   ar
    23    23    24   ar
    24    24    25   ar
    25    25    26   ar
    26    18     1    1
    27    26    19   ar
    28    17     3   ar
    29    26    22   ar
    30     8     4   ar
    31    16     9   ar
    32    15    11   ar
    33     1    27    1
    34     1    28    1
    35     2    29    1
    36     5    30    1
    37     6    31    1
    38     7    32    1
    39     7    33    1
    40    12    34    1
    41    18    35    1
    42    21    36    1
    43    23    37    1
    44    24    38    1
