@<TRIPOS>MOLECULE
*****
 41 47 0 0 0
SMALL
GASTEIGER

@<TRIPOS>ATOM
      1 C          -3.3836   -2.0441    2.7627 C.3     1  UNL1        0.0000
      2 C          -4.4600   -1.4752    1.8802 C.2     1  UNL1        0.0000
      3 C          -3.8992   -0.8212    0.8509 C.ar    1  UNL1        0.0000
      4 C          -4.5296   -0.1132   -0.2538 C.ar    1  UNL1        0.0000
      5 C          -5.9609    0.0599   -0.5136 C.2     1  UNL1        0.0000
      6 C          -6.2680    0.7658   -1.6178 C.2     1  UNL1        0.0000
      7 SI         -4.7115    1.3260   -2.5086 Si      1  UNL1        0.0000
      8 C          -3.7215    0.4750   -1.1822 C.ar    1  UNL1        0.0000
      9 C          -2.2965    0.3885   -1.0581 C.ar    1  UNL1        0.0000
     10 S          -1.1731    1.0784   -2.1467 S.2     1  UNL1        0.0000
     11 C           0.1811    0.5038   -1.2598 C.ar    1  UNL1        0.0000
     12 C           1.5442    0.6837   -1.5517 C.ar    1  UNL1        0.0000
     13 C           2.4833    0.1243   -0.6828 C.ar    1  UNL1        0.0000
     14 C           1.9950   -0.5723    0.4173 C.ar    1  UNL1        0.0000
     15 N           0.6946   -0.7648    0.7306 N.ar    1  UNL1        0.0000
     16 C          -0.2098   -0.2143   -0.1291 C.ar    1  UNL1        0.0000
     17 C          -1.6312   -0.2743   -0.0246 C.ar    1  UNL1        0.0000
     18 C          -2.4393   -0.9067    0.9732 C.ar    1  UNL1        0.0000
     19 C          -2.1257   -1.6086    2.0703 C.2     1  UNL1        0.0000
     20 C           3.9219    0.2682   -0.8960 C.ar    1  UNL1        0.0000
     21 S           4.6279    0.1171   -2.4874 S.2     1  UNL1        0.0000
     22 C           6.2511    0.3656   -1.9259 C.ar    1  UNL1        0.0000
     23 C           6.2015    0.5459   -0.5918 C.ar    1  UNL1        0.0000
     24 N           7.2561    0.7735    0.2429 N.ar    1  UNL1        0.0000
     25 C           6.6085    0.8821    1.4720 C.ar    1  UNL1        0.0000
     26 C           5.2123    0.7205    1.3405 C.ar    1  UNL1        0.0000
     27 C           4.9435    0.4918   -0.0356 C.ar    1  UNL1        0.0000
     28 H          -3.4422   -1.6270    3.7723 H       1  UNL1        0.0000
     29 H          -3.4500   -3.1351    2.8096 H       1  UNL1        0.0000
     30 H          -5.5163   -1.5889    2.0665 H       1  UNL1        0.0000
     31 H          -6.7046   -0.3606    0.1515 H       1  UNL1        0.0000
     32 H          -7.2529    1.0053   -1.9855 H       1  UNL1        0.0000
     33 H          -4.5969    0.6900   -3.8454 H       1  UNL1        0.0000
     34 H          -4.5860    2.8054   -2.4961 H       1  UNL1        0.0000
     35 H           1.8436    1.2547   -2.4250 H       1  UNL1        0.0000
     36 H           2.6810   -1.0379    1.1227 H       1  UNL1        0.0000
     37 H          -1.1273   -1.8335    2.4139 H       1  UNL1        0.0000
     38 H           7.1031    0.3620   -2.5909 H       1  UNL1        0.0000
     39 H           8.2381    0.8432    0.0052 H       1  UNL1        0.0000
     40 H           7.1985    1.0736    2.3594 H       1  UNL1        0.0000
     41 H           4.5008    0.7733    2.1544 H       1  UNL1        0.0000
@<TRIPOS>BOND
     1     1     2    1
     2     2     3    2
     3     3     4   ar
     4     4     5    1
     5     5     6    2
     6     6     7    1
     7     7     8    1
     8     8     9   ar
     9     9    10   ar
    10    10    11   ar
    11    11    12   ar
    12    12    13   ar
    13    13    14   ar
    14    14    15   ar
    15    15    16   ar
    16    16    17   ar
    17    17    18   ar
    18    18    19    2
    19    13    20    1
    20    20    21   ar
    21    21    22   ar
    22    22    23   ar
    23    23    24   ar
    24    24    25   ar
    25    25    26   ar
    26    26    27   ar
    27    19     1    1
    28    27    20   ar
    29    18     3   ar
    30    27    23   ar
    31     8     4   ar
    32    17     9   ar
    33    16    11   ar
    34     1    28    1
    35     1    29    1
    36     2    30    1
    37     5    31    1
    38     6    32    1
    39     7    33    1
    40     7    34    1
    41    12    35    1
    42    14    36    1
    43    19    37    1
    44    22    38    1
    45    24    39    1
    46    25    40    1
    47    26    41    1
