@<TRIPOS>MOLECULE
*****
 48 55 0 0 0
SMALL
GASTEIGER

@<TRIPOS>ATOM
      1 C           3.5170   -3.2050   -2.0665 C.3     1  UNL1       -0.0148
      2 C           4.4991   -2.1084   -1.8150 C.2     1  UNL1       -0.0720
      3 C           3.8855   -1.1019   -1.1758 C.ar    1  UNL1       -0.0138
      4 C           4.4772    0.0782   -0.6148 C.ar    1  UNL1       -0.0138
      5 C           5.8208    0.6020   -0.6967 C.2     1  UNL1       -0.0574
      6 C           5.9009    1.7349    0.0141 C.2     1  UNL1       -0.0791
      7 C           4.5671    2.0326    0.6404 C.3     1  UNL1       -0.0080
      8 C           3.7237    0.8917    0.1562 C.ar    1  UNL1       -0.0276
      9 C           2.2907    0.6466    0.3777 C.ar    1  UNL1       -0.0035
     10 C           1.4496    1.4305    1.1799 C.ar    1  UNL1        0.0080
     11 C           1.7679    2.4997    1.9856 C.ar    1  UNL1        0.0100
     12 N           0.6088    2.9406    2.5864 N.ar    1  UNL1       -0.3659
     13 C          -0.4542    2.1750    2.1737 C.ar    1  UNL1        0.0100
     14 C           0.0381    1.2290    1.3054 C.ar    1  UNL1        0.0078
     15 C          -0.7140    0.2511    0.6177 C.ar    1  UNL1       -0.0047
     16 C          -2.1164    0.1024    0.7114 C.ar    1  UNL1       -0.0268
     17 C          -2.7320   -0.8558   -0.0715 C.ar    1  UNL1        0.0788
     18 N          -2.0347   -1.6259   -0.9310 N.ar    1  UNL1       -0.2538
     19 C          -0.6836   -1.4548   -0.9890 C.ar    1  UNL1        0.0366
     20 C           0.0941   -0.5724   -0.2220 C.ar    1  UNL1        0.0092
     21 C           1.5646   -0.4365   -0.2745 C.ar    1  UNL1       -0.0004
     22 C           2.4607   -1.4062   -0.9932 C.ar    1  UNL1       -0.0129
     23 C           2.2601   -2.6556   -1.4543 C.2     1  UNL1       -0.0719
     24 C          -4.1779   -1.0686   -0.0436 C.ar    1  UNL1        0.0467
     25 S          -4.8653   -2.6488   -0.3508 S.2     1  UNL1       -0.0924
     26 C          -6.5014   -2.1193   -0.1253 C.ar    1  UNL1        0.0002
     27 C          -6.4715   -0.8043    0.1636 C.ar    1  UNL1        0.0542
     28 N          -7.5453    0.0012    0.4062 N.ar    1  UNL1       -0.3602
     29 C          -6.9199    1.2261    0.6272 C.ar    1  UNL1        0.0028
     30 C          -5.5172    1.1209    0.5111 C.ar    1  UNL1       -0.0355
     31 C          -5.2176   -0.2363    0.2083 C.ar    1  UNL1        0.0159
     32 H           3.8236   -4.1284   -1.5662 H       1  UNL1        0.0350
     33 H           3.3884   -3.3903   -3.1368 H       1  UNL1        0.0350
     34 H           5.5499   -2.1675   -2.0520 H       1  UNL1        0.0581
     35 H           6.6215    0.1405   -1.2532 H       1  UNL1        0.0621
     36 H           6.7835    2.3449    0.1307 H       1  UNL1        0.0575
     37 H           4.6679    2.0324    1.7299 H       1  UNL1        0.0356
     38 H           4.1917    2.9983    0.2885 H       1  UNL1        0.0356
     39 H           2.6929    3.0039    2.2164 H       1  UNL1        0.0813
     40 H           0.5505    3.7164    3.2339 H       1  UNL1        0.1648
     41 H          -1.4494    2.3860    2.5398 H       1  UNL1        0.0813
     42 H          -2.6964    0.7228    1.3825 H       1  UNL1        0.0645
     43 H          -0.2434   -2.0638   -1.7690 H       1  UNL1        0.0836
     44 H           1.3682   -3.2551   -1.3875 H       1  UNL1        0.0581
     45 H          -7.3452   -2.7875   -0.2204 H       1  UNL1        0.0714
     46 H          -8.5260   -0.2512    0.4106 H       1  UNL1        0.1653
     47 H          -7.5299    2.0935    0.8453 H       1  UNL1        0.0807
     48 H          -4.8226    1.9423    0.6254 H       1  UNL1        0.0639
@<TRIPOS>BOND
     1     1     2    1
     2     2     3    2
     3     3     4   ar
     4     4     5    1
     5     5     6    2
     6     6     7    1
     7     7     8    1
     8     8     9   ar
     9     9    10   ar
    10    10    11   ar
    11    11    12   ar
    12    12    13   ar
    13    13    14   ar
    14    14    15   ar
    15    15    16   ar
    16    16    17   ar
    17    17    18   ar
    18    18    19   ar
    19    19    20   ar
    20    20    21   ar
    21    21    22   ar
    22    22    23    2
    23    17    24    1
    24    24    25   ar
    25    25    26   ar
    26    26    27   ar
    27    27    28   ar
    28    28    29   ar
    29    29    30   ar
    30    30    31   ar
    31    23     1    1
    32    31    24   ar
    33    22     3   ar
    34    31    27   ar
    35     8     4   ar
    36    21     9   ar
    37    14    10   ar
    38    20    15   ar
    39     1    32    1
    40     1    33    1
    41     2    34    1
    42     5    35    1
    43     6    36    1
    44     7    37    1
    45     7    38    1
    46    11    39    1
    47    12    40    1
    48    13    41    1
    49    16    42    1
    50    19    43    1
    51    23    44    1
    52    26    45    1
    53    28    46    1
    54    29    47    1
    55    30    48    1
