@<TRIPOS>MOLECULE
*****
 47 54 0 0 0
SMALL
GASTEIGER

@<TRIPOS>ATOM
      1 SI          0.5827   -3.7690    0.0669 Si      1  UNL1        0.0000
      2 C           1.8797   -2.4760   -0.2089 C.2     1  UNL1        0.0000
      3 C           1.3398   -1.2655   -0.4668 C.ar    1  UNL1        0.0000
      4 C           2.1200   -0.1071   -0.9005 C.ar    1  UNL1        0.0000
      5 C           1.4470    0.9857   -1.3142 C.ar    1  UNL1        0.0000
      6 C          -0.0241    1.0783   -1.2585 C.ar    1  UNL1        0.0000
      7 C          -0.6463    2.2581   -1.7496 C.ar    1  UNL1        0.0000
      8 N          -0.0447    3.2928   -2.3666 N.ar    1  UNL1        0.0000
      9 S          -1.2279    4.3793   -2.7597 S.2     1  UNL1        0.0000
     10 N          -2.5567    3.6097   -2.1432 N.ar    1  UNL1        0.0000
     11 C          -2.1253    2.4550   -1.6001 C.ar    1  UNL1        0.0000
     12 C          -2.9256    1.4898   -0.9067 C.ar    1  UNL1        0.0000
     13 C          -4.3071    1.7348   -0.7150 C.ar    1  UNL1        0.0000
     14 C          -5.0927    0.8571    0.0357 C.ar    1  UNL1        0.0000
     15 C          -6.4598    1.0765    0.2470 C.ar    1  UNL1        0.0000
     16 C          -7.1648    0.1767    1.0294 C.ar    1  UNL1        0.0000
     17 N          -6.6105   -0.9066    1.6094 N.ar    1  UNL1        0.0000
     18 C          -5.2886   -1.0980    1.3911 C.ar    1  UNL1        0.0000
     19 C          -4.4805   -0.2622    0.6143 C.ar    1  UNL1        0.0000
     20 C          -3.1019   -0.4998    0.4045 C.ar    1  UNL1        0.0000
     21 C          -2.2745    0.3239   -0.4002 C.ar    1  UNL1        0.0000
     22 C          -0.8673    0.0768   -0.6746 C.ar    1  UNL1        0.0000
     23 C          -0.1495   -1.2169   -0.4017 C.ar    1  UNL1        0.0000
     24 C          -0.7016   -2.4398   -0.2383 C.2     1  UNL1        0.0000
     25 C           3.5509   -0.0470   -0.9368 C.ar    1  UNL1        0.0000
     26 S           4.3999   -0.1420   -2.4576 S.2     1  UNL1        0.0000
     27 C           5.9541   -0.0324   -1.7176 C.ar    1  UNL1        0.0000
     28 C           5.8078    0.0613   -0.3692 C.ar    1  UNL1        0.0000
     29 SI          6.9558    0.2054    1.1147 Si      1  UNL1        0.0000
     30 C           5.4063    0.2336    2.2363 C.2     1  UNL1        0.0000
     31 C           4.2705    0.1459    1.5095 C.2     1  UNL1        0.0000
     32 C           4.4637    0.0514    0.0908 C.ar    1  UNL1        0.0000
     33 H           0.5642   -4.8124   -0.9855 H       1  UNL1        0.0000
     34 H           0.5412   -4.2604    1.4650 H       1  UNL1        0.0000
     35 H           2.9257   -2.7402   -0.2421 H       1  UNL1        0.0000
     36 H           1.9841    1.8662   -1.6613 H       1  UNL1        0.0000
     37 H          -4.7586    2.6303   -1.1410 H       1  UNL1        0.0000
     38 H          -6.9697    1.9325   -0.1824 H       1  UNL1        0.0000
     39 H          -8.2262    0.3115    1.2177 H       1  UNL1        0.0000
     40 H          -4.8808   -1.9817    1.8756 H       1  UNL1        0.0000
     41 H          -2.6680   -1.3374    0.9430 H       1  UNL1        0.0000
     42 H          -1.7352   -2.7335   -0.2879 H       1  UNL1        0.0000
     43 H           6.8526   -0.0474   -2.3193 H       1  UNL1        0.0000
     44 H           7.6916    1.4918    1.1911 H       1  UNL1        0.0000
     45 H           7.7710   -1.0088    1.3682 H       1  UNL1        0.0000
     46 H           5.4983    0.3135    3.3074 H       1  UNL1        0.0000
     47 H           3.2812    0.1463    1.9532 H       1  UNL1        0.0000
@<TRIPOS>BOND
     1     1     2    1
     2     2     3    2
     3     3     4   ar
     4     4     5   ar
     5     5     6   ar
     6     6     7   ar
     7     7     8   ar
     8     8     9   ar
     9     9    10   ar
    10    10    11   ar
    11    11    12   ar
    12    12    13   ar
    13    13    14   ar
    14    14    15   ar
    15    15    16   ar
    16    16    17   ar
    17    17    18   ar
    18    18    19   ar
    19    19    20   ar
    20    20    21   ar
    21    21    22   ar
    22    22    23   ar
    23    23    24    2
    24     4    25    1
    25    25    26   ar
    26    26    27   ar
    27    27    28   ar
    28    28    29    1
    29    29    30    1
    30    30    31    2
    31    31    32    1
    32    24     1    1
    33    32    25   ar
    34    23     3   ar
    35    32    28   ar
    36    22     6   ar
    37    11     7   ar
    38    21    12   ar
    39    19    14   ar
    40     1    33    1
    41     1    34    1
    42     2    35    1
    43     5    36    1
    44    13    37    1
    45    15    38    1
    46    16    39    1
    47    18    40    1
    48    20    41    1
    49    24    42    1
    50    27    43    1
    51    29    44    1
    52    29    45    1
    53    30    46    1
    54    31    47    1
