@<TRIPOS>MOLECULE
*****
 48 55 0 0 0
SMALL
GASTEIGER

@<TRIPOS>ATOM
      1 C          -2.7450    3.8005   -0.4752 C.3     1  UNL1        0.0000
      2 C          -3.9642    2.9376   -0.5404 C.2     1  UNL1        0.0000
      3 C          -3.6112    1.6548   -0.3720 C.ar    1  UNL1        0.0000
      4 C          -4.4499    0.4905   -0.3592 C.ar    1  UNL1        0.0000
      5 C          -5.8798    0.3603   -0.5214 C.2     1  UNL1        0.0000
      6 C          -6.2220   -0.9311   -0.4349 C.2     1  UNL1        0.0000
      7 C          -4.9926   -1.7615   -0.2015 C.3     1  UNL1        0.0000
      8 C          -3.9012   -0.7317   -0.1705 C.ar    1  UNL1        0.0000
      9 C          -2.4477   -0.9210    0.0255 C.ar    1  UNL1        0.0000
     10 C          -1.7995   -2.1730    0.2300 C.ar    1  UNL1        0.0000
     11 C          -2.3849   -3.4173    0.2844 C.ar    1  UNL1        0.0000
     12 S          -1.2485   -4.6834    0.5493 S.2     1  UNL1        0.0000
     13 C           0.0654   -3.5877    0.5984 C.ar    1  UNL1        0.0000
     14 C          -0.3610   -2.2956    0.4162 C.ar    1  UNL1        0.0000
     15 C           0.4876   -1.2006    0.4076 C.ar    1  UNL1        0.0000
     16 C           1.9170   -1.0922    0.5656 C.2     1  UNL1        0.0000
     17 C           2.2290    0.2143    0.4600 C.2     1  UNL1        0.0000
     18 C           0.9807    1.0705    0.2415 C.3     1  UNL1        0.0000
     19 C          -0.1279    0.0493    0.2078 C.ar    1  UNL1        0.0000
     20 C          -1.5305    0.2208    0.0225 C.ar    1  UNL1        0.0000
     21 C          -2.1631    1.5527   -0.1853 C.ar    1  UNL1        0.0000
     22 C          -1.6524    2.7961   -0.2435 C.2     1  UNL1        0.0000
     23 C           3.5812    0.6563    0.5744 C.ar    1  UNL1        0.0000
     24 S           3.9192    2.1109    1.4809 S.2     1  UNL1        0.0000
     25 C           5.6190    2.0094    1.2316 C.ar    1  UNL1        0.0000
     26 C           5.8971    0.9213    0.4671 C.ar    1  UNL1        0.0000
     27 SI          7.4515    0.1432   -0.2543 Si      1  UNL1        0.0000
     28 C           6.3395   -1.1824   -1.0606 C.2     1  UNL1        0.0000
     29 C           5.0364   -0.9818   -0.7645 C.2     1  UNL1        0.0000
     30 C           4.7663    0.1518    0.0763 C.ar    1  UNL1        0.0000
     31 H          -2.8075    4.5121    0.3533 H       1  UNL1        0.0000
     32 H          -2.5910    4.3398   -1.4144 H       1  UNL1        0.0000
     33 H          -4.9646    3.3090   -0.6982 H       1  UNL1        0.0000
     34 H          -6.5522    1.1877   -0.6859 H       1  UNL1        0.0000
     35 H          -7.2233   -1.3253   -0.5182 H       1  UNL1        0.0000
     36 H          -4.8640   -2.4681   -1.0271 H       1  UNL1        0.0000
     37 H          -5.0821   -2.2906    0.7521 H       1  UNL1        0.0000
     38 H          -3.4152   -3.7125    0.1899 H       1  UNL1        0.0000
     39 H           1.0681   -3.9587    0.7584 H       1  UNL1        0.0000
     40 H           2.5819   -1.9201    0.7483 H       1  UNL1        0.0000
     41 H           0.8410    1.7636    1.0766 H       1  UNL1        0.0000
     42 H           1.0572    1.6001   -0.7131 H       1  UNL1        0.0000
     43 H          -0.6239    3.0958   -0.1455 H       1  UNL1        0.0000
     44 H           6.2846    2.7517    1.6506 H       1  UNL1        0.0000
     45 H           8.1226    0.9748   -1.2842 H       1  UNL1        0.0000
     46 H           8.3523   -0.4613    0.7584 H       1  UNL1        0.0000
     47 H           6.7611   -1.9609   -1.6758 H       1  UNL1        0.0000
     48 H           4.2464   -1.6183   -1.1451 H       1  UNL1        0.0000
@<TRIPOS>BOND
     1     1     2    1
     2     2     3    2
     3     3     4   ar
     4     4     5    1
     5     5     6    2
     6     6     7    1
     7     7     8    1
     8     8     9   ar
     9     9    10   ar
    10    10    11   ar
    11    11    12   ar
    12    12    13   ar
    13    13    14   ar
    14    14    15   ar
    15    15    16    1
    16    16    17    2
    17    17    18    1
    18    18    19    1
    19    19    20   ar
    20    20    21   ar
    21    21    22    2
    22    17    23    1
    23    23    24   ar
    24    24    25   ar
    25    25    26   ar
    26    26    27    1
    27    27    28    1
    28    28    29    2
    29    29    30    1
    30    22     1    1
    31    30    23   ar
    32    21     3   ar
    33    30    26   ar
    34     8     4   ar
    35    20     9   ar
    36    14    10   ar
    37    19    15   ar
    38     1    31    1
    39     1    32    1
    40     2    33    1
    41     5    34    1
    42     6    35    1
    43     7    36    1
    44     7    37    1
    45    11    38    1
    46    13    39    1
    47    16    40    1
    48    18    41    1
    49    18    42    1
    50    22    43    1
    51    25    44    1
    52    27    45    1
    53    27    46    1
    54    28    47    1
    55    29    48    1
