@<TRIPOS>MOLECULE
*****
 44 51 0 0 0
SMALL
GASTEIGER

@<TRIPOS>ATOM
      1 C           1.7986    3.3294    1.8607 C.3     1  UNL1       -0.0148
      2 C           3.1290    2.8066    1.4288 C.2     1  UNL1       -0.0720
      3 C           2.9566    1.6723    0.7345 C.ar    1  UNL1       -0.0138
      4 C           3.9586    0.8389    0.1350 C.ar    1  UNL1       -0.0138
      5 C           5.3968    0.9762    0.1063 C.2     1  UNL1       -0.0574
      6 C           5.9283   -0.0465   -0.5739 C.2     1  UNL1       -0.0791
      7 C           4.8314   -0.9530   -1.0522 C.3     1  UNL1       -0.0080
      8 C           3.5934   -0.2793   -0.5335 C.ar    1  UNL1       -0.0276
      9 C           2.1763   -0.6857   -0.6748 C.ar    1  UNL1       -0.0040
     10 C           1.7117   -1.8316   -1.3528 C.ar    1  UNL1       -0.0022
     11 C           2.4939   -2.7688   -1.9986 C.ar    1  UNL1       -0.0160
     12 S           1.5883   -4.0480   -2.7249 S.2     1  UNL1       -0.1038
     13 C           0.1038   -3.3804   -2.1919 C.ar    1  UNL1       -0.0160
     14 C           0.3554   -2.2318   -1.4955 C.ar    1  UNL1       -0.0020
     15 C          -0.6620   -1.4113   -0.9039 C.ar    1  UNL1       -0.0014
     16 C          -2.0451   -1.6847   -0.9658 C.ar    1  UNL1       -0.0380
     17 C          -2.7757   -0.7153   -0.3041 C.ar    1  UNL1        0.0306
     18 S          -1.7257    0.4698    0.3526 S.2     1  UNL1       -0.0870
     19 C          -0.2662   -0.2687   -0.2225 C.ar    1  UNL1        0.0288
     20 C           1.1113    0.1136   -0.0922 C.ar    1  UNL1        0.0047
     21 C           1.5305    1.3431    0.6419 C.ar    1  UNL1       -0.0124
     22 C           0.8559    2.3066    1.2970 C.2     1  UNL1       -0.0719
     23 C          -4.2107   -0.6572   -0.1555 C.ar    1  UNL1        0.0687
     24 S          -5.2954   -1.8571   -0.8193 S.2     1  UNL1       -0.0918
     25 C          -6.7260   -1.0777   -0.2210 C.ar    1  UNL1       -0.0128
     26 C          -6.3365    0.0304    0.4399 C.ar    1  UNL1        0.0278
     27 C          -6.8964    1.1009    1.1517 C.ar    1  UNL1       -0.0156
     28 C          -5.8021    1.8766    1.5501 C.ar    1  UNL1        0.0932
     29 O          -4.5780    1.3805    1.1448 O.2     1  UNL1       -0.4618
     30 C          -4.9807    0.2604    0.4774 C.ar    1  UNL1        0.1500
     31 H           1.7251    3.3738    2.9512 H       1  UNL1        0.0350
     32 H           1.6050    4.3191    1.4370 H       1  UNL1        0.0350
     33 H           4.0707    3.2830    1.6517 H       1  UNL1        0.0581
     34 H           5.9411    1.7853    0.5678 H       1  UNL1        0.0621
     35 H           6.9803   -0.2044   -0.7561 H       1  UNL1        0.0575
     36 H           4.8446   -0.9975   -2.1455 H       1  UNL1        0.0356
     37 H           4.9659   -1.9492   -0.6198 H       1  UNL1        0.0356
     38 H           3.5606   -2.8300   -2.1206 H       1  UNL1        0.0700
     39 H          -0.8298   -3.8717   -2.4248 H       1  UNL1        0.0700
     40 H          -2.4966   -2.5345   -1.4603 H       1  UNL1        0.0635
     41 H          -0.2065    2.3980    1.4385 H       1  UNL1        0.0581
     42 H          -7.7109   -1.4854   -0.3984 H       1  UNL1        0.0701
     43 H          -7.9351    1.3098    1.3634 H       1  UNL1        0.0655
     44 H          -5.7340    2.7953    2.1181 H       1  UNL1        0.1030
@<TRIPOS>BOND
     1     1     2    1
     2     2     3    2
     3     3     4   ar
     4     4     5    1
     5     5     6    2
     6     6     7    1
     7     7     8    1
     8     8     9   ar
     9     9    10   ar
    10    10    11   ar
    11    11    12   ar
    12    12    13   ar
    13    13    14   ar
    14    14    15   ar
    15    15    16   ar
    16    16    17   ar
    17    17    18   ar
    18    18    19   ar
    19    19    20   ar
    20    20    21   ar
    21    21    22    2
    22    17    23    1
    23    23    24   ar
    24    24    25   ar
    25    25    26   ar
    26    26    27   ar
    27    27    28   ar
    28    28    29   ar
    29    29    30   ar
    30    22     1    1
    31    30    23   ar
    32    21     3   ar
    33    30    26   ar
    34     8     4   ar
    35    20     9   ar
    36    14    10   ar
    37    19    15   ar
    38     1    31    1
    39     1    32    1
    40     2    33    1
    41     5    34    1
    42     6    35    1
    43     7    36    1
    44     7    37    1
    45    11    38    1
    46    13    39    1
    47    16    40    1
    48    22    41    1
    49    25    42    1
    50    27    43    1
    51    28    44    1
