@<TRIPOS>MOLECULE
*****
 50 57 0 0 0
SMALL
GASTEIGER

@<TRIPOS>ATOM
      1 C          -2.8415    2.1801    3.0033 C.3     1  UNL1       -0.0148
      2 C          -4.1211    1.7638    2.3492 C.2     1  UNL1       -0.0720
      3 C          -3.8531    0.9174    1.3447 C.ar    1  UNL1       -0.0138
      4 C          -4.7671    0.2695    0.4464 C.ar    1  UNL1       -0.0138
      5 C          -6.2069    0.3190    0.3428 C.2     1  UNL1       -0.0574
      6 C          -6.6100   -0.4665   -0.6662 C.2     1  UNL1       -0.0791
      7 C          -5.4173   -1.1104   -1.3196 C.3     1  UNL1       -0.0079
      8 C          -4.2829   -0.5541   -0.5081 C.ar    1  UNL1       -0.0261
      9 C          -2.8406   -0.8218   -0.6712 C.ar    1  UNL1        0.0152
     10 C          -2.3671   -1.7051   -1.7004 C.ar    1  UNL1        0.1084
     11 N          -3.0907   -2.3803   -2.6129 N.ar    1  UNL1       -0.1901
     12 S          -2.0267   -3.2417   -3.5469 S.2     1  UNL1        0.1165
     13 N          -0.5837   -2.8124   -2.8541 N.ar    1  UNL1       -0.1902
     14 C          -0.8819   -1.9695   -1.8528 C.ar    1  UNL1        0.1079
     15 C           0.0081   -1.3362   -0.9719 C.ar    1  UNL1        0.0075
     16 C           1.4497   -1.4428   -0.9333 C.2     1  UNL1       -0.0481
     17 C           1.8545   -0.6496    0.0722 C.2     1  UNL1       -0.0347
     18 C           0.7110    0.0349    0.7940 C.3     1  UNL1       -0.0006
     19 C          -0.4863   -0.4738    0.0286 C.ar    1  UNL1       -0.0254
     20 C          -1.8587   -0.2040    0.1997 C.ar    1  UNL1       -0.0039
     21 C          -2.4060    0.7009    1.2450 C.ar    1  UNL1       -0.0132
     22 C          -1.8113    1.4311    2.2050 C.2     1  UNL1       -0.0719
     23 C           3.2442   -0.4593    0.4949 C.ar    1  UNL1       -0.0138
     24 C           3.6289   -1.0471    1.7101 C.ar    1  UNL1       -0.0537
     25 C           4.9336   -0.9230    2.1757 C.ar    1  UNL1       -0.0606
     26 C           5.8693   -0.2093    1.4317 C.ar    1  UNL1       -0.0540
     27 C           5.5160    0.3927    0.2145 C.ar    1  UNL1       -0.0173
     28 C           6.4738    1.1126   -0.5194 C.ar    1  UNL1       -0.0540
     29 C           6.1427    1.7254   -1.7269 C.ar    1  UNL1       -0.0612
     30 C           4.8472    1.6286   -2.2162 C.ar    1  UNL1       -0.0611
     31 C           3.8838    0.9158   -1.4989 C.ar    1  UNL1       -0.0535
     32 C           4.1893    0.2763   -0.2733 C.ar    1  UNL1       -0.0105
     33 H          -2.8187    1.8794    4.0549 H       1  UNL1        0.0350
     34 H          -2.6903    3.2606    2.9247 H       1  UNL1        0.0350
     35 H          -5.0991    2.1038    2.6526 H       1  UNL1        0.0581
     36 H          -6.8441    0.9041    0.9874 H       1  UNL1        0.0621
     37 H          -7.6325   -0.6227   -0.9745 H       1  UNL1        0.0575
     38 H          -5.3563   -0.8099   -2.3701 H       1  UNL1        0.0356
     39 H          -5.4855   -2.1995   -1.2369 H       1  UNL1        0.0356
     40 H           2.0487   -2.0503   -1.5930 H       1  UNL1        0.0627
     41 H           0.8009    1.1219    0.7045 H       1  UNL1        0.0362
     42 H           0.6661   -0.2794    1.8411 H       1  UNL1        0.0362
     43 H          -0.7597    1.5109    2.4198 H       1  UNL1        0.0581
     44 H           2.9130   -1.6199    2.2959 H       1  UNL1        0.0624
     45 H           5.2238   -1.3866    3.1148 H       1  UNL1        0.0618
     46 H           6.8854   -0.1257    1.8119 H       1  UNL1        0.0624
     47 H           7.4939    1.2029   -0.1519 H       1  UNL1        0.0624
     48 H           6.8960    2.2781   -2.2817 H       1  UNL1        0.0618
     49 H           4.5807    2.1057   -3.1556 H       1  UNL1        0.0618
     50 H           2.8785    0.8658   -1.9113 H       1  UNL1        0.0624
@<TRIPOS>BOND
     1     1     2    1
     2     2     3    2
     3     3     4   ar
     4     4     5    1
     5     5     6    2
     6     6     7    1
     7     7     8    1
     8     8     9   ar
     9     9    10   ar
    10    10    11   ar
    11    11    12   ar
    12    12    13   ar
    13    13    14   ar
    14    14    15   ar
    15    15    16    1
    16    16    17    2
    17    17    18    1
    18    18    19    1
    19    19    20   ar
    20    20    21   ar
    21    21    22    2
    22    17    23    1
    23    23    24   ar
    24    24    25   ar
    25    25    26   ar
    26    26    27   ar
    27    27    28   ar
    28    28    29   ar
    29    29    30   ar
    30    30    31   ar
    31    31    32   ar
    32    22     1    1
    33    32    23   ar
    34    21     3   ar
    35    32    27   ar
    36     8     4   ar
    37    20     9   ar
    38    14    10   ar
    39    19    15   ar
    40     1    33    1
    41     1    34    1
    42     2    35    1
    43     5    36    1
    44     6    37    1
    45     7    38    1
    46     7    39    1
    47    16    40    1
    48    18    41    1
    49    18    42    1
    50    22    43    1
    51    24    44    1
    52    25    45    1
    53    26    46    1
    54    28    47    1
    55    29    48    1
    56    30    49    1
    57    31    50    1
