@<TRIPOS>MOLECULE
*****
 46 52 0 0 0
SMALL
GASTEIGER

@<TRIPOS>ATOM
      1 C          -2.5262   -3.3422   -1.2807 C.3     1  UNL1       -0.0148
      2 C          -3.8149   -2.5921   -1.1695 C.2     1  UNL1       -0.0720
      3 C          -3.5721   -1.3614   -0.6971 C.ar    1  UNL1       -0.0137
      4 C          -4.5025   -0.2988   -0.4323 C.ar    1  UNL1       -0.0138
      5 C          -5.9372   -0.2140   -0.5795 C.2     1  UNL1       -0.0574
      6 C          -6.3564    1.0017   -0.1972 C.2     1  UNL1       -0.0791
      7 C          -5.1811    1.8300    0.2440 C.3     1  UNL1       -0.0080
      8 C          -4.0402    0.8769    0.0446 C.ar    1  UNL1       -0.0281
      9 C          -2.6107    1.1409    0.3164 C.ar    1  UNL1       -0.0113
     10 C          -2.2038    2.3823    0.8106 C.ar    1  UNL1       -0.0530
     11 C          -0.8558    2.6420    1.0721 C.ar    1  UNL1       -0.0520
     12 C           0.1077    1.6439    0.8373 C.ar    1  UNL1        0.0009
     13 C           1.5195    1.6063    1.0013 C.ar    1  UNL1       -0.0286
     14 C           1.9682    0.3600    0.6173 C.ar    1  UNL1        0.0481
     15 N           0.8552   -0.3481    0.2284 N.ar    1  UNL1       -0.3536
     16 C          -0.2965    0.3983    0.3444 C.ar    1  UNL1        0.0553
     17 C          -1.6482    0.1099    0.0688 C.ar    1  UNL1        0.0137
     18 C          -2.1327   -1.1880   -0.4565 C.ar    1  UNL1       -0.0115
     19 C          -1.5192   -2.3363   -0.7948 C.2     1  UNL1       -0.0719
     20 C           3.2983   -0.2114    0.5918 C.ar    1  UNL1        0.0074
     21 C           3.6358   -1.4809    1.1252 C.ar    1  UNL1       -0.0520
     22 C           4.9628   -2.0402    1.0972 C.ar    1  UNL1       -0.0605
     23 C           6.0868   -1.3951    0.5316 C.ar    1  UNL1       -0.0526
     24 C           5.7301   -0.1574    0.0125 C.ar    1  UNL1        0.0000
     25 C           6.5731    0.7207   -0.6178 C.ar    1  UNL1        0.0094
     26 N           5.8106    1.8080   -0.9893 N.ar    1  UNL1       -0.3659
     27 C           4.4980    1.6271   -0.6050 C.ar    1  UNL1        0.0100
     28 C           4.4201    0.4137    0.0358 C.ar    1  UNL1        0.0085
     29 H          -2.3246   -3.6304   -2.3166 H       1  UNL1        0.0350
     30 H          -2.5304   -4.2321   -0.6445 H       1  UNL1        0.0350
     31 H          -4.7804   -2.9939   -1.4343 H       1  UNL1        0.0581
     32 H          -6.5588   -1.0171   -0.9432 H       1  UNL1        0.0621
     33 H          -7.3797    1.3446   -0.2012 H       1  UNL1        0.0575
     34 H          -5.0811    2.7207   -0.3840 H       1  UNL1        0.0356
     35 H          -5.2885    2.1217    1.2933 H       1  UNL1        0.0356
     36 H          -2.9245    3.1721    1.0027 H       1  UNL1        0.0624
     37 H          -0.5541    3.6123    1.4566 H       1  UNL1        0.0624
     38 H           2.1429    2.4088    1.3736 H       1  UNL1        0.0645
     39 H           0.8975   -1.2911   -0.1184 H       1  UNL1        0.1659
     40 H          -0.4723   -2.5715   -0.7534 H       1  UNL1        0.0581
     41 H           2.8563   -2.0708    1.6077 H       1  UNL1        0.0624
     42 H           5.1079   -3.0233    1.5467 H       1  UNL1        0.0618
     43 H           7.0776   -1.8251    0.5151 H       1  UNL1        0.0624
     44 H           7.6295    0.6828   -0.8451 H       1  UNL1        0.0813
     45 H           6.1603    2.6189   -1.4828 H       1  UNL1        0.1648
     46 H           3.7536    2.3778   -0.8317 H       1  UNL1        0.0813
@<TRIPOS>BOND
     1     1     2    1
     2     2     3    2
     3     3     4   ar
     4     4     5    1
     5     5     6    2
     6     6     7    1
     7     7     8    1
     8     8     9   ar
     9     9    10   ar
    10    10    11   ar
    11    11    12   ar
    12    12    13   ar
    13    13    14   ar
    14    14    15   ar
    15    15    16   ar
    16    16    17   ar
    17    17    18   ar
    18    18    19    2
    19    14    20    1
    20    20    21   ar
    21    21    22   ar
    22    22    23   ar
    23    23    24   ar
    24    24    25   ar
    25    25    26   ar
    26    26    27   ar
    27    27    28   ar
    28    19     1    1
    29    28    20   ar
    30    18     3   ar
    31    28    24   ar
    32     8     4   ar
    33    17     9   ar
    34    16    12   ar
    35     1    29    1
    36     1    30    1
    37     2    31    1
    38     5    32    1
    39     6    33    1
    40     7    34    1
    41     7    35    1
    42    10    36    1
    43    11    37    1
    44    13    38    1
    45    15    39    1
    46    19    40    1
    47    21    41    1
    48    22    42    1
    49    23    43    1
    50    25    44    1
    51    26    45    1
    52    27    46    1
