@<TRIPOS>MOLECULE
*****
 50 57 0 0 0
SMALL
GASTEIGER

@<TRIPOS>ATOM
      1 C          -3.3460    3.3714   -0.9046 C.3     1  UNL1       -0.0148
      2 C          -4.5345    2.5175   -0.5900 C.2     1  UNL1       -0.0720
      3 C          -4.1160    1.2922   -0.2420 C.ar    1  UNL1       -0.0138
      4 C          -4.8905    0.1027   -0.0405 C.ar    1  UNL1       -0.0138
      5 C          -6.3131   -0.1296    0.0392 C.2     1  UNL1       -0.0574
      6 C          -6.5433   -1.4420    0.1949 C.2     1  UNL1       -0.0791
      7 C          -5.2374   -2.1884    0.2243 C.3     1  UNL1       -0.0080
      8 C          -4.2429   -1.0765    0.0646 C.ar    1  UNL1       -0.0282
      9 C          -2.7680   -1.2001    0.0542 C.ar    1  UNL1       -0.0126
     10 C          -2.1761   -2.4647    0.0623 C.ar    1  UNL1       -0.0531
     11 C          -0.7879   -2.6037    0.1053 C.ar    1  UNL1       -0.0534
     12 C           0.0605   -1.5027    0.2493 C.ar    1  UNL1       -0.0160
     13 C           1.4753   -1.7651    0.3501 C.ar    1  UNL1       -0.0451
     14 C           2.4672   -0.7927    0.5960 C.ar    1  UNL1       -0.0013
     15 C           3.8876   -1.0600    0.6899 C.ar    1  UNL1        0.0240
     16 S           4.4903   -2.1587    1.8871 S.2     1  UNL1       -0.0958
     17 C           6.1337   -1.9527    1.3921 C.ar    1  UNL1       -0.0163
     18 C           6.1830   -1.0799    0.3494 C.ar    1  UNL1       -0.0142
     19 C           7.1974   -0.5319   -0.4732 C.2     1  UNL1       -0.0574
     20 C           6.6326    0.2977   -1.3804 C.2     1  UNL1       -0.0791
     21 C           5.1098    0.3610   -1.2075 C.3     1  UNL1       -0.0075
     22 C           4.9289   -0.5692   -0.0559 C.ar    1  UNL1       -0.0217
     23 C           1.8912    0.4593    0.7928 C.ar    1  UNL1        0.0082
     24 C           2.5357    1.5998    1.2111 C.ar    1  UNL1        0.0100
     25 N           1.5730    2.5582    1.4114 N.ar    1  UNL1       -0.3659
     26 C           0.3278    2.0361    1.1424 C.ar    1  UNL1        0.0100
     27 C           0.4902    0.7527    0.6724 C.ar    1  UNL1        0.0083
     28 C          -0.5329   -0.1865    0.3126 C.ar    1  UNL1       -0.0004
     29 C          -1.9426   -0.0333    0.0726 C.ar    1  UNL1       -0.0018
     30 C          -2.6508    1.2418   -0.2303 C.ar    1  UNL1       -0.0129
     31 C          -2.2025    2.4221   -0.6933 C.2     1  UNL1       -0.0719
     32 H          -3.2795    4.2299   -0.2303 H       1  UNL1        0.0350
     33 H          -3.3781    3.7180   -1.9418 H       1  UNL1        0.0350
     34 H          -5.5595    2.8271   -0.7214 H       1  UNL1        0.0581
     35 H          -7.0596    0.6469   -0.0203 H       1  UNL1        0.0621
     36 H          -7.5146   -1.9043    0.2834 H       1  UNL1        0.0575
     37 H          -5.1859   -2.9026   -0.6034 H       1  UNL1        0.0356
     38 H          -5.1129   -2.7107    1.1780 H       1  UNL1        0.0356
     39 H          -2.7815   -3.3661    0.0164 H       1  UNL1        0.0624
     40 H          -0.3777   -3.6125    0.0749 H       1  UNL1        0.0624
     41 H           1.8144   -2.7975    0.2399 H       1  UNL1        0.0630
     42 H           6.9343   -2.4812    1.8892 H       1  UNL1        0.0699
     43 H           8.2519   -0.7510   -0.3841 H       1  UNL1        0.0621
     44 H           7.1678    0.8517   -2.1370 H       1  UNL1        0.0575
     45 H           4.7922    1.3793   -0.9688 H       1  UNL1        0.0356
     46 H           4.6018    0.0005   -2.1062 H       1  UNL1        0.0356
     47 H           3.5731    1.8069    1.4378 H       1  UNL1        0.0813
     48 H           1.7452    3.4872    1.7735 H       1  UNL1        0.1648
     49 H          -0.5499    2.6307    1.3496 H       1  UNL1        0.0813
     50 H          -1.1810    2.6730   -0.9295 H       1  UNL1        0.0581
@<TRIPOS>BOND
     1     1     2    1
     2     2     3    2
     3     3     4   ar
     4     4     5    1
     5     5     6    2
     6     6     7    1
     7     7     8    1
     8     8     9   ar
     9     9    10   ar
    10    10    11   ar
    11    11    12   ar
    12    12    13   ar
    13    13    14   ar
    14    14    15    1
    15    15    16   ar
    16    16    17   ar
    17    17    18   ar
    18    18    19    1
    19    19    20    2
    20    20    21    1
    21    21    22    1
    22    14    23   ar
    23    23    24   ar
    24    24    25   ar
    25    25    26   ar
    26    26    27   ar
    27    27    28   ar
    28    28    29   ar
    29    29    30   ar
    30    30    31    2
    31    31     1    1
    32    30     3   ar
    33     8     4   ar
    34    29     9   ar
    35    28    12   ar
    36    22    15   ar
    37    27    23   ar
    38    22    18   ar
    39     1    32    1
    40     1    33    1
    41     2    34    1
    42     5    35    1
    43     6    36    1
    44     7    37    1
    45     7    38    1
    46    10    39    1
    47    11    40    1
    48    13    41    1
    49    17    42    1
    50    19    43    1
    51    20    44    1
    52    21    45    1
    53    21    46    1
    54    24    47    1
    55    25    48    1
    56    26    49    1
    57    31    50    1
