@<TRIPOS>MOLECULE
*****
 51 58 0 0 0
SMALL
GASTEIGER

@<TRIPOS>ATOM
      1 C          -3.1900   -2.5766   -2.1576 C.3     1  UNL1       -0.0148
      2 C          -4.3669   -1.7622   -1.7173 C.2     1  UNL1       -0.0720
      3 C          -3.9359   -0.7245   -0.9860 C.ar    1  UNL1       -0.0138
      4 C          -4.6728    0.4112   -0.5166 C.ar    1  UNL1       -0.0138
      5 C          -6.0837    0.7142   -0.4913 C.2     1  UNL1       -0.0574
      6 C          -6.2669    1.9450    0.0101 C.2     1  UNL1       -0.0791
      7 C          -4.9370    2.5580    0.3553 C.3     1  UNL1       -0.0080
      8 C          -3.9848    1.4639   -0.0285 C.ar    1  UNL1       -0.0282
      9 C          -2.5121    1.4799    0.1121 C.ar    1  UNL1       -0.0126
     10 C          -1.8604    2.6581    0.4565 C.ar    1  UNL1       -0.0531
     11 C          -0.4777    2.6656    0.5848 C.ar    1  UNL1       -0.0534
     12 C           0.2671    1.4800    0.5169 C.ar    1  UNL1       -0.0161
     13 C           1.6518    1.5720    0.6657 C.ar    1  UNL1       -0.0451
     14 C           2.4673    0.4380    0.6894 C.ar    1  UNL1       -0.0010
     15 C           3.9080    0.6450    0.7650 C.ar    1  UNL1        0.0438
     16 S           4.7264    1.1296    2.2117 S.2     1  UNL1       -0.0939
     17 C           6.2920    1.1390    1.4465 C.ar    1  UNL1       -0.0145
     18 C           6.1175    0.7861    0.1563 C.ar    1  UNL1        0.0073
     19 C           6.8406    0.5753   -1.0434 C.ar    1  UNL1       -0.0361
     20 C           5.9036    0.1987   -2.0308 C.ar    1  UNL1        0.0028
     21 N           4.6066    0.1580   -1.5214 N.ar    1  UNL1       -0.3598
     22 C           4.8212    0.5176   -0.2217 C.ar    1  UNL1        0.0614
     23 C           1.8782   -0.8447    0.6835 C.ar    1  UNL1       -0.0090
     24 C           2.6532   -2.0219    0.8495 C.ar    1  UNL1       -0.0534
     25 C           2.0722   -3.2808    0.9662 C.ar    1  UNL1       -0.0611
     26 C           0.6964   -3.3892    0.9528 C.ar    1  UNL1       -0.0611
     27 C          -0.0827   -2.2446    0.7688 C.ar    1  UNL1       -0.0534
     28 C           0.4637   -0.9540    0.5541 C.ar    1  UNL1       -0.0090
     29 C          -0.3567    0.2250    0.3111 C.ar    1  UNL1       -0.0019
     30 C          -1.7449    0.2836   -0.0850 C.ar    1  UNL1       -0.0019
     31 C          -2.4813   -0.7903   -0.8227 C.ar    1  UNL1       -0.0129
     32 C          -2.0359   -1.8175   -1.5696 C.2     1  UNL1       -0.0719
     33 H          -3.1218   -2.6058   -3.2491 H       1  UNL1        0.0350
     34 H          -3.2379   -3.5955   -1.7630 H       1  UNL1        0.0350
     35 H          -5.3835   -1.9426   -2.0300 H       1  UNL1        0.0581
     36 H          -6.8561    0.0409   -0.8291 H       1  UNL1        0.0621
     37 H          -7.2197    2.4337    0.1459 H       1  UNL1        0.0575
     38 H          -4.7713    3.4672   -0.2310 H       1  UNL1        0.0356
     39 H          -4.8825    2.7865    1.4242 H       1  UNL1        0.0356
     40 H          -2.4029    3.5905    0.5819 H       1  UNL1        0.0624
     41 H           0.0145    3.6163    0.7854 H       1  UNL1        0.0624
     42 H           2.1204    2.5525    0.7562 H       1  UNL1        0.0630
     43 H           7.1869    1.3976    1.9932 H       1  UNL1        0.0700
     44 H           7.9064    0.6764   -1.1999 H       1  UNL1        0.0639
     45 H           6.0629   -0.0471   -3.0730 H       1  UNL1        0.0807
     46 H           3.7241   -0.0747   -1.9624 H       1  UNL1        0.1654
     47 H           3.7378   -1.9668    0.9312 H       1  UNL1        0.0624
     48 H           2.6942   -4.1595    1.1113 H       1  UNL1        0.0618
     49 H           0.2187   -4.3541    1.0991 H       1  UNL1        0.0618
     50 H          -1.1608   -2.3757    0.8363 H       1  UNL1        0.0624
     51 H          -1.0057   -2.0774   -1.7580 H       1  UNL1        0.0581
@<TRIPOS>BOND
     1     1     2    1
     2     2     3    2
     3     3     4   ar
     4     4     5    1
     5     5     6    2
     6     6     7    1
     7     7     8    1
     8     8     9   ar
     9     9    10   ar
    10    10    11   ar
    11    11    12   ar
    12    12    13   ar
    13    13    14   ar
    14    14    15    1
    15    15    16   ar
    16    16    17   ar
    17    17    18   ar
    18    18    19   ar
    19    19    20   ar
    20    20    21   ar
    21    21    22   ar
    22    14    23   ar
    23    23    24   ar
    24    24    25   ar
    25    25    26   ar
    26    26    27   ar
    27    27    28   ar
    28    28    29   ar
    29    29    30   ar
    30    30    31   ar
    31    31    32    2
    32    32     1    1
    33    31     3   ar
    34     8     4   ar
    35    30     9   ar
    36    29    12   ar
    37    22    15   ar
    38    28    23   ar
    39    22    18   ar
    40     1    33    1
    41     1    34    1
    42     2    35    1
    43     5    36    1
    44     6    37    1
    45     7    38    1
    46     7    39    1
    47    10    40    1
    48    11    41    1
    49    13    42    1
    50    17    43    1
    51    19    44    1
    52    20    45    1
    53    21    46    1
    54    24    47    1
    55    25    48    1
    56    26    49    1
    57    27    50    1
    58    32    51    1
