@<TRIPOS>MOLECULE
*****
 40 46 0 0 0
SMALL
GASTEIGER

@<TRIPOS>ATOM
      1 C          -1.0814   -3.9733   -1.0362 C.3     1  UNL1       -0.0148
      2 C           0.0464   -2.9889   -0.9181 C.2     1  UNL1       -0.0718
      3 C          -0.4355   -1.8182   -0.4837 C.ar    1  UNL1       -0.0084
      4 C           0.1957   -0.5889   -0.2109 C.ar    1  UNL1        0.0522
      5 C           1.5006   -0.0930   -0.2703 C.ar    1  UNL1        0.0939
      6 N           2.7989   -0.3954   -0.5720 N.ar    1  UNL1       -0.3507
      7 C           3.5753    0.7336   -0.3532 C.ar    1  UNL1        0.0587
      8 C           2.7538    1.7662    0.0941 C.ar    1  UNL1        0.0072
      9 C           1.4701    1.2001    0.1287 C.ar    1  UNL1        0.1544
     10 O           0.2041    1.5954    0.4534 O.2     1  UNL1       -0.4526
     11 C          -0.5488    0.4820    0.2356 C.ar    1  UNL1        0.1466
     12 C          -1.9800    0.4583    0.4592 C.ar    1  UNL1        0.0348
     13 C          -2.8054    1.4882    0.9062 C.ar    1  UNL1        0.0107
     14 C          -2.4781    2.7774    1.2464 C.ar    1  UNL1        0.0101
     15 N          -3.6421    3.4119    1.6275 N.ar    1  UNL1       -0.3659
     16 C          -4.7117    2.5459    1.5360 C.ar    1  UNL1        0.0094
     17 C          -4.2152    1.3484    1.0909 C.ar    1  UNL1        0.0001
     18 C          -4.9580    0.1959    0.8593 C.ar    1  UNL1       -0.0520
     19 C          -4.1355   -0.8659    0.4031 C.ar    1  UNL1       -0.0527
     20 C          -2.7119   -0.7624    0.2052 C.ar    1  UNL1       -0.0063
     21 C          -1.8940   -1.9190   -0.2792 C.ar    1  UNL1       -0.0132
     22 C          -2.2743   -3.1683   -0.5986 C.2     1  UNL1       -0.0719
     23 C           4.9978    0.7350   -0.5824 C.ar    1  UNL1        0.0550
     24 C           5.8078   -0.2965   -1.0288 C.ar    1  UNL1        0.0439
     25 N           7.1549   -0.0106   -1.1587 N.ar    1  UNL1       -0.2550
     26 C           7.3596    1.2389   -0.8093 C.ar    1  UNL1        0.0653
     27 S           5.9800    2.1239   -0.3159 S.2     1  UNL1       -0.0740
     28 H          -1.1971   -4.3167   -2.0684 H       1  UNL1        0.0350
     29 H          -0.9244   -4.8321   -0.3771 H       1  UNL1        0.0350
     30 H           1.0748   -3.2114   -1.1518 H       1  UNL1        0.0581
     31 H           3.0971   -1.3055   -0.8974 H       1  UNL1        0.1660
     32 H           3.0351    2.7756    0.3564 H       1  UNL1        0.0676
     33 H          -1.5362    3.3090    1.2566 H       1  UNL1        0.0813
     34 H          -3.6999    4.3753    1.9305 H       1  UNL1        0.1648
     35 H          -5.7095    2.8716    1.7961 H       1  UNL1        0.0813
     36 H          -6.0249    0.0995    1.0019 H       1  UNL1        0.0624
     37 H          -4.6284   -1.8142    0.1935 H       1  UNL1        0.0624
     38 H          -3.2757   -3.5674   -0.5588 H       1  UNL1        0.0581
     39 H           5.4729   -1.2946   -1.2802 H       1  UNL1        0.0842
     40 H           8.3429    1.6903   -0.8299 H       1  UNL1        0.0907
@<TRIPOS>BOND
     1     1     2    1
     2     2     3    2
     3     3     4   ar
     4     4     5   ar
     5     5     6   ar
     6     6     7   ar
     7     7     8   ar
     8     8     9   ar
     9     9    10   ar
    10    10    11   ar
    11    11    12   ar
    12    12    13   ar
    13    13    14   ar
    14    14    15   ar
    15    15    16   ar
    16    16    17   ar
    17    17    18   ar
    18    18    19   ar
    19    19    20   ar
    20    20    21   ar
    21    21    22    2
    22     7    23    1
    23    23    24   ar
    24    24    25   ar
    25    25    26   ar
    26    26    27   ar
    27    22     1    1
    28    27    23   ar
    29    21     3   ar
    30    11     4   ar
    31    20    12   ar
    32     9     5   ar
    33    17    13   ar
    34     1    28    1
    35     1    29    1
    36     2    30    1
    37     6    31    1
    38     8    32    1
    39    14    33    1
    40    15    34    1
    41    16    35    1
    42    18    36    1
    43    19    37    1
    44    22    38    1
    45    24    39    1
    46    26    40    1
