@<TRIPOS>MOLECULE
*****
 42 48 0 0 0
SMALL
GASTEIGER

@<TRIPOS>ATOM
      1 C          -2.0604    3.7141   -1.0502 C.3     1  UNL1       -0.0148
      2 C          -0.8220    2.8923   -0.8405 C.2     1  UNL1       -0.0718
      3 C          -1.1731    1.6555   -0.4690 C.ar    1  UNL1       -0.0084
      4 C          -0.4048    0.5190   -0.1553 C.ar    1  UNL1        0.0522
      5 C           0.9579    0.2144   -0.1008 C.ar    1  UNL1        0.0939
      6 N           2.2223    0.7051   -0.2769 N.ar    1  UNL1       -0.3513
      7 C           3.1262   -0.3093   -0.0036 C.ar    1  UNL1        0.0468
      8 C           2.4251   -1.4583    0.3520 C.ar    1  UNL1        0.0064
      9 C           1.0763   -1.0800    0.2756 C.ar    1  UNL1        0.1543
     10 O          -0.1448   -1.6571    0.4762 O.2     1  UNL1       -0.4526
     11 C          -1.0283   -0.6568    0.2053 C.ar    1  UNL1        0.1466
     12 C          -2.4668   -0.8453    0.2970 C.ar    1  UNL1        0.0339
     13 C          -3.1692   -2.0054    0.6550 C.ar    1  UNL1        0.0004
     14 C          -2.6145   -3.2165    0.9966 C.ar    1  UNL1       -0.0159
     15 S          -3.8137   -4.3923    1.3718 S.2     1  UNL1       -0.1039
     16 C          -5.0947   -3.2870    1.0794 C.ar    1  UNL1       -0.0166
     17 C          -4.6138   -2.0564    0.7062 C.ar    1  UNL1       -0.0102
     18 C          -5.4630   -0.9874    0.4137 C.ar    1  UNL1       -0.0529
     19 C          -4.7588    0.1848    0.0522 C.ar    1  UNL1       -0.0527
     20 C          -3.3290    0.2752   -0.0101 C.ar    1  UNL1       -0.0063
     21 C          -2.6419    1.5470   -0.4003 C.ar    1  UNL1       -0.0132
     22 C          -3.1632    2.7399   -0.7369 C.2     1  UNL1       -0.0719
     23 C           4.5262   -0.0813   -0.1060 C.2     1  UNL1       -0.0202
     24 C           5.0871    1.0845   -0.4819 C.2     1  UNL1       -0.0566
     25 C           6.5245    0.9736   -0.4811 C.2     1  UNL1       -0.0650
     26 C           6.8761   -0.2618   -0.1055 C.2     1  UNL1       -0.0796
     27 C           5.6446   -1.0705    0.1746 C.3     1  UNL1       -0.0072
     28 H          -2.0861    4.5686   -0.3676 H       1  UNL1        0.0350
     29 H          -2.1292    4.0654   -2.0840 H       1  UNL1        0.0350
     30 H           0.1828    3.2596   -0.9734 H       1  UNL1        0.0581
     31 H           2.4140    1.6567   -0.5593 H       1  UNL1        0.1660
     32 H           2.8314   -2.4212    0.6241 H       1  UNL1        0.0676
     33 H          -1.5739   -3.5020    1.0544 H       1  UNL1        0.0700
     34 H          -6.1202   -3.6082    1.1993 H       1  UNL1        0.0699
     35 H          -6.5442   -1.0257    0.4520 H       1  UNL1        0.0624
     36 H          -5.3560    1.0628   -0.1905 H       1  UNL1        0.0624
     37 H          -4.2096    2.9972   -0.7860 H       1  UNL1        0.0581
     38 H           4.5926    2.0024   -0.7573 H       1  UNL1        0.0621
     39 H           7.1961    1.7760   -0.7464 H       1  UNL1        0.0615
     40 H           7.8860   -0.6314   -0.0146 H       1  UNL1        0.0575
     41 H           5.5858   -1.9356   -0.4935 H       1  UNL1        0.0356
     42 H           5.6261   -1.4046    1.2169 H       1  UNL1        0.0356
@<TRIPOS>BOND
     1     1     2    1
     2     2     3    2
     3     3     4   ar
     4     4     5   ar
     5     5     6   ar
     6     6     7   ar
     7     7     8   ar
     8     8     9   ar
     9     9    10   ar
    10    10    11   ar
    11    11    12   ar
    12    12    13   ar
    13    13    14   ar
    14    14    15   ar
    15    15    16   ar
    16    16    17   ar
    17    17    18   ar
    18    18    19   ar
    19    19    20   ar
    20    20    21   ar
    21    21    22    2
    22     7    23    1
    23    23    24    2
    24    24    25    1
    25    25    26    2
    26    26    27    1
    27    22     1    1
    28    27    23    1
    29    21     3   ar
    30    11     4   ar
    31    20    12   ar
    32     9     5   ar
    33    17    13   ar
    34     1    28    1
    35     1    29    1
    36     2    30    1
    37     6    31    1
    38     8    32    1
    39    14    33    1
    40    16    34    1
    41    18    35    1
    42    19    36    1
    43    22    37    1
    44    24    38    1
    45    25    39    1
    46    26    40    1
    47    27    41    1
    48    27    42    1
