@<TRIPOS>MOLECULE
*****
 46 53 0 0 0
SMALL
GASTEIGER

@<TRIPOS>ATOM
      1 C          -2.0970   -3.9519   -0.9133 C.3     1  UNL1        0.0000
      2 C          -3.1506   -2.8931   -0.7824 C.2     1  UNL1        0.0000
      3 C          -2.5625   -1.7399   -0.4474 C.ar    1  UNL1        0.0000
      4 C          -3.0637   -0.4592   -0.1742 C.ar    1  UNL1        0.0000
      5 C          -4.3558    0.0787   -0.0783 C.ar    1  UNL1        0.0000
      6 N          -5.6828   -0.2128   -0.2225 N.ar    1  UNL1        0.0000
      7 C          -6.3947    0.9192    0.0987 C.ar    1  UNL1        0.0000
      8 C          -5.5299    1.9348    0.4623 C.ar    1  UNL1        0.0000
      9 C          -4.2381    1.3677    0.3388 C.ar    1  UNL1        0.0000
     10 N          -2.9066    1.6583    0.5161 N.ar    1  UNL1        0.0000
     11 C          -2.1731    0.5589    0.1375 C.ar    1  UNL1        0.0000
     12 C          -0.7251    0.4784    0.1819 C.ar    1  UNL1        0.0000
     13 C          -0.1976   -0.7917    0.0179 C.ar    1  UNL1        0.0000
     14 C           1.2521   -1.0279    0.1914 C.ar    1  UNL1        0.0000
     15 C           2.1604   -0.0733    0.4837 C.ar    1  UNL1        0.0000
     16 C           3.5226   -0.4805    0.6143 C.ar    1  UNL1        0.0000
     17 S           4.0998   -1.2632    2.0516 S.2     1  UNL1        0.0000
     18 C           5.7150   -1.3922    1.4630 C.ar    1  UNL1        0.0000
     19 C           5.8106   -0.8503    0.2144 C.ar    1  UNL1        0.0000
     20 S           7.2141   -0.6835   -0.9008 S.2     1  UNL1        0.0000
     21 C           6.0636    0.0866   -1.9875 C.ar    1  UNL1        0.0000
     22 C           4.7476    0.1931   -1.5224 C.ar    1  UNL1        0.0000
     23 C           4.5842   -0.3557   -0.2233 C.ar    1  UNL1        0.0000
     24 C           1.6772    1.2998    0.5723 C.ar    1  UNL1        0.0000
     25 C           2.4620    2.3801    0.7676 C.2     1  UNL1        0.0000
     26 SI          1.4882    3.9549    0.6798 Si      1  UNL1        0.0000
     27 C          -0.0359    2.9184    0.3531 C.2     1  UNL1        0.0000
     28 C           0.2300    1.5934    0.3809 C.ar    1  UNL1        0.0000
     29 C          -1.1136   -1.9134   -0.3222 C.ar    1  UNL1        0.0000
     30 C          -0.8326   -3.2012   -0.5948 C.2     1  UNL1        0.0000
     31 H          -2.2621   -4.7631   -0.1981 H       1  UNL1        0.0000
     32 H          -2.0683   -4.3559   -1.9295 H       1  UNL1        0.0000
     33 H          -4.2057   -3.0548   -0.9285 H       1  UNL1        0.0000
     34 H          -6.0342   -1.1149   -0.5170 H       1  UNL1        0.0000
     35 H          -7.4756    0.9056    0.0471 H       1  UNL1        0.0000
     36 H          -5.7984    2.9345    0.7735 H       1  UNL1        0.0000
     37 H          -2.5847    2.5339    0.9005 H       1  UNL1        0.0000
     38 H           1.5819   -2.0583    0.0913 H       1  UNL1        0.0000
     39 H           6.5076   -1.8456    2.0417 H       1  UNL1        0.0000
     40 H           6.4416    0.4271   -2.9419 H       1  UNL1        0.0000
     41 H           3.9566    0.6477   -2.1071 H       1  UNL1        0.0000
     42 H           3.5310    2.3936    0.9122 H       1  UNL1        0.0000
     43 H           1.8526    4.7933   -0.4871 H       1  UNL1        0.0000
     44 H           1.4089    4.6630    1.9796 H       1  UNL1        0.0000
     45 H          -0.9609    3.4240    0.1492 H       1  UNL1        0.0000
     46 H           0.1419   -3.6627   -0.6052 H       1  UNL1        0.0000
@<TRIPOS>BOND
     1     1     2    1
     2     2     3    2
     3     3     4   ar
     4     4     5   ar
     5     5     6   ar
     6     6     7   ar
     7     7     8   ar
     8     8     9   ar
     9     9    10   ar
    10    10    11   ar
    11    11    12   ar
    12    12    13   ar
    13    13    14   ar
    14    14    15   ar
    15    15    16    1
    16    16    17   ar
    17    17    18   ar
    18    18    19   ar
    19    19    20   ar
    20    20    21   ar
    21    21    22   ar
    22    22    23   ar
    23    15    24   ar
    24    24    25    2
    25    25    26    1
    26    26    27    1
    27    27    28    2
    28    13    29   ar
    29    29    30    2
    30    30     1    1
    31    29     3   ar
    32    11     4   ar
    33    28    12   ar
    34     9     5   ar
    35    23    16   ar
    36    28    24   ar
    37    23    19   ar
    38     1    31    1
    39     1    32    1
    40     2    33    1
    41     6    34    1
    42     7    35    1
    43     8    36    1
    44    10    37    1
    45    14    38    1
    46    18    39    1
    47    21    40    1
    48    22    41    1
    49    25    42    1
    50    26    43    1
    51    26    44    1
    52    27    45    1
    53    30    46    1
