@<TRIPOS>MOLECULE
*****
 37 42 0 0 0
SMALL
GASTEIGER

@<TRIPOS>ATOM
      1 C          -1.1261   -1.6119    3.3340 C.3     1  UNL1       -0.0148
      2 C          -2.2414   -1.0702    2.4862 C.2     1  UNL1       -0.0718
      3 C          -1.7299   -0.5506    1.3640 C.ar    1  UNL1       -0.0100
      4 C          -2.3349    0.0739    0.2503 C.ar    1  UNL1        0.0331
      5 C          -3.6616    0.3819   -0.0984 C.ar    1  UNL1        0.0727
      6 N          -4.9572    0.2941    0.3281 N.ar    1  UNL1       -0.3589
      7 C          -5.7540    0.8624   -0.6380 C.ar    1  UNL1        0.0042
      8 C          -4.9771    1.3166   -1.6874 C.ar    1  UNL1       -0.0204
      9 C          -3.6482    0.9972   -1.3166 C.ar    1  UNL1        0.0653
     10 N          -2.3504    1.0909   -1.7564 N.ar    1  UNL1       -0.3512
     11 C          -1.5478    0.5267   -0.7979 C.ar    1  UNL1        0.0758
     12 C          -0.0914    0.4057   -0.8440 C.ar    1  UNL1        0.0955
     13 N           0.5204    0.9021   -1.9410 N.ar    1  UNL1       -0.2523
     14 C           1.8707    0.7764   -1.9585 C.ar    1  UNL1        0.0365
     15 C           2.6377    0.1855   -0.9466 C.ar    1  UNL1        0.0074
     16 C           1.9559   -0.3106    0.1754 C.ar    1  UNL1       -0.0423
     17 C           0.5672   -0.2098    0.2446 C.ar    1  UNL1        0.0104
     18 C          -0.2646   -0.6986    1.3698 C.ar    1  UNL1       -0.0118
     19 C           0.0966   -1.3134    2.5088 C.2     1  UNL1       -0.0719
     20 C           4.1006    0.0981   -1.0249 C.ar    1  UNL1        0.0208
     21 C           5.0343    0.3290   -0.0295 C.ar    1  UNL1       -0.0469
     22 C           6.3744    0.1276   -0.4720 C.ar    1  UNL1       -0.0541
     23 C           6.4265   -0.2595   -1.7909 C.ar    1  UNL1       -0.0237
     24 S           4.8702   -0.3784   -2.4854 S.2     1  UNL1       -0.0966
     25 H          -1.2394   -2.6884    3.4919 H       1  UNL1        0.0350
     26 H          -1.0819   -1.0999    4.2998 H       1  UNL1        0.0350
     27 H          -3.2844   -1.1046    2.7558 H       1  UNL1        0.0581
     28 H          -5.2361   -0.1234    1.2065 H       1  UNL1        0.1654
     29 H          -6.8263    0.8969   -0.4965 H       1  UNL1        0.0807
     30 H          -5.3230    1.8062   -2.5870 H       1  UNL1        0.0653
     31 H          -2.0555    1.5038   -2.6315 H       1  UNL1        0.1660
     32 H           2.3392    1.1955   -2.8461 H       1  UNL1        0.0836
     33 H           2.5085   -0.7829    0.9818 H       1  UNL1        0.0631
     34 H           1.0994   -1.5690    2.8133 H       1  UNL1        0.0581
     35 H           4.7713    0.6404    0.9746 H       1  UNL1        0.0629
     36 H           7.2538    0.2602    0.1464 H       1  UNL1        0.0623
     37 H           7.3042   -0.4808   -2.3828 H       1  UNL1        0.0693
@<TRIPOS>BOND
     1     1     2    1
     2     2     3    2
     3     3     4   ar
     4     4     5   ar
     5     5     6   ar
     6     6     7   ar
     7     7     8   ar
     8     8     9   ar
     9     9    10   ar
    10    10    11   ar
    11    11    12   ar
    12    12    13   ar
    13    13    14   ar
    14    14    15   ar
    15    15    16   ar
    16    16    17   ar
    17    17    18   ar
    18    18    19    2
    19    15    20    1
    20    20    21   ar
    21    21    22   ar
    22    22    23   ar
    23    23    24   ar
    24    19     1    1
    25    24    20   ar
    26    18     3   ar
    27    11     4   ar
    28    17    12   ar
    29     9     5   ar
    30     1    25    1
    31     1    26    1
    32     2    27    1
    33     6    28    1
    34     7    29    1
    35     8    30    1
    36    10    31    1
    37    14    32    1
    38    16    33    1
    39    19    34    1
    40    21    35    1
    41    22    36    1
    42    23    37    1
