@<TRIPOS>MOLECULE
*****
 42 48 0 0 0
SMALL
GASTEIGER

@<TRIPOS>ATOM
      1 SI          2.7913    2.6561    2.6022 Si      1  UNL1        0.0000
      2 C           3.7242    1.6644    1.3288 C.2     1  UNL1        0.0000
      3 C           2.8970    0.9154    0.5674 C.ar    1  UNL1        0.0000
      4 C           3.3169    0.0108   -0.5107 C.ar    1  UNL1        0.0000
      5 C           2.3720   -0.7582   -1.1014 C.ar    1  UNL1        0.0000
      6 C           0.9283   -0.6720   -0.7703 C.ar    1  UNL1        0.0000
      7 C           0.0300   -1.4870   -1.4796 C.ar    1  UNL1        0.0000
      8 C          -1.3393   -1.3561   -1.2099 C.ar    1  UNL1        0.0000
      9 N          -2.4176   -2.0230   -1.7711 N.ar    1  UNL1        0.0000
     10 C          -3.6095   -1.5639   -1.2538 C.ar    1  UNL1        0.0000
     11 C          -4.9589   -1.9169   -1.5329 C.ar    1  UNL1        0.0000
     12 C          -6.0291   -1.2752   -0.8698 C.ar    1  UNL1        0.0000
     13 C          -5.5902   -0.3188    0.0353 C.ar    1  UNL1        0.0000
     14 C          -6.3838    0.4801    0.8208 C.ar    1  UNL1        0.0000
     15 O          -5.6033    1.3140    1.5868 O.2     1  UNL1        0.0000
     16 C          -4.2891    1.0466    1.2860 C.ar    1  UNL1        0.0000
     17 C          -4.2778    0.0606    0.3512 C.ar    1  UNL1        0.0000
     18 C          -3.2252   -0.6022   -0.3342 C.ar    1  UNL1        0.0000
     19 C          -1.8353   -0.4492   -0.2691 C.ar    1  UNL1        0.0000
     20 C          -0.9236    0.3468    0.4520 C.ar    1  UNL1        0.0000
     21 C           0.4566    0.2338    0.2070 C.ar    1  UNL1        0.0000
     22 C           1.4643    1.0405    0.9338 C.ar    1  UNL1        0.0000
     23 C           1.2180    1.8840    1.9599 C.2     1  UNL1        0.0000
     24 C           4.6583   -0.1455   -1.0005 C.ar    1  UNL1        0.0000
     25 N           5.3783   -1.2560   -0.9962 N.ar    1  UNL1        0.0000
     26 C           6.6315   -1.0274   -1.5255 C.ar    1  UNL1        0.0000
     27 C           6.8668    0.2577   -1.9621 C.ar    1  UNL1        0.0000
     28 S           5.4710    1.2141   -1.7183 S.2     1  UNL1        0.0000
     29 H           3.1045    2.2453    3.9913 H       1  UNL1        0.0000
     30 H           2.8506    4.1124    2.3376 H       1  UNL1        0.0000
     31 H           4.7997    1.7214    1.2765 H       1  UNL1        0.0000
     32 H           2.6473   -1.4532   -1.8905 H       1  UNL1        0.0000
     33 H           0.3805   -2.1894   -2.2276 H       1  UNL1        0.0000
     34 H          -2.3394   -2.7280   -2.4880 H       1  UNL1        0.0000
     35 H          -5.1771   -2.6883   -2.2699 H       1  UNL1        0.0000
     36 H          -7.0658   -1.5175   -1.0643 H       1  UNL1        0.0000
     37 H          -7.4495    0.5926    0.9596 H       1  UNL1        0.0000
     38 H          -3.5555    1.6360    1.8169 H       1  UNL1        0.0000
     39 H          -1.2995    1.0511    1.1848 H       1  UNL1        0.0000
     40 H           0.2725    2.1241    2.4166 H       1  UNL1        0.0000
     41 H           7.3472   -1.8425   -1.5659 H       1  UNL1        0.0000
     42 H           7.7630    0.6625   -2.4081 H       1  UNL1        0.0000
@<TRIPOS>BOND
     1     1     2    1
     2     2     3    2
     3     3     4   ar
     4     4     5   ar
     5     5     6   ar
     6     6     7   ar
     7     7     8   ar
     8     8     9   ar
     9     9    10   ar
    10    10    11   ar
    11    11    12   ar
    12    12    13   ar
    13    13    14   ar
    14    14    15   ar
    15    15    16   ar
    16    16    17   ar
    17    17    18   ar
    18    18    19   ar
    19    19    20   ar
    20    20    21   ar
    21    21    22   ar
    22    22    23    2
    23     4    24    1
    24    24    25   ar
    25    25    26   ar
    26    26    27   ar
    27    27    28   ar
    28    23     1    1
    29    28    24   ar
    30    22     3   ar
    31    21     6   ar
    32    19     8   ar
    33    18    10   ar
    34    17    13   ar
    35     1    29    1
    36     1    30    1
    37     2    31    1
    38     5    32    1
    39     7    33    1
    40     9    34    1
    41    11    35    1
    42    12    36    1
    43    14    37    1
    44    16    38    1
    45    20    39    1
    46    23    40    1
    47    26    41    1
    48    27    42    1
