@<TRIPOS>MOLECULE
*****
 38 43 0 0 0
SMALL
GASTEIGER

@<TRIPOS>ATOM
      1 C           2.5486    1.5741    2.9881 C.3     1  UNL1       -0.0148
      2 C           1.2294    1.2345    2.3571 C.2     1  UNL1       -0.0718
      3 C           1.4469    0.6278    1.1841 C.ar    1  UNL1       -0.0102
      4 C           0.5536    0.1175    0.2167 C.ar    1  UNL1        0.0323
      5 C          -0.8209    0.0269    0.0663 C.ar    1  UNL1        0.0105
      6 C          -2.1122    0.3489    0.7097 C.3     1  UNL1        0.0054
      7 C          -3.0811   -0.2107   -0.3515 C.2     1  UNL1        0.0047
      8 C          -2.4279   -0.7545   -1.4110 C.2     1  UNL1       -0.0120
      9 C          -1.0548   -0.6017   -1.1407 C.ar    1  UNL1        0.1330
     10 O           0.1076   -0.9160   -1.7670 O.2     1  UNL1       -0.4545
     11 C           1.0869   -0.4688   -0.9226 C.ar    1  UNL1        0.1442
     12 C           2.5011   -0.6250   -1.2485 C.ar    1  UNL1        0.0256
     13 C           2.9473   -1.2311   -2.4244 C.ar    1  UNL1       -0.0505
     14 C           4.3168   -1.3442   -2.6665 C.ar    1  UNL1       -0.0611
     15 C           5.2394   -0.8543   -1.7389 C.ar    1  UNL1       -0.0611
     16 C           4.8048   -0.2452   -0.5575 C.ar    1  UNL1       -0.0533
     17 C           3.4371   -0.1218   -0.2955 C.ar    1  UNL1       -0.0069
     18 C           2.8945    0.5132    0.9378 C.ar    1  UNL1       -0.0133
     19 C           3.5419    1.0606    1.9811 C.2     1  UNL1       -0.0719
     20 C          -4.5222   -0.1251   -0.1611 C.ar    1  UNL1        0.1595
     21 N          -5.3045   -0.6289   -1.1184 N.ar    1  UNL1       -0.2163
     22 C          -6.6081   -0.5167   -0.8792 C.ar    1  UNL1        0.1200
     23 N          -7.1622    0.0362    0.1964 N.ar    1  UNL1       -0.2241
     24 C          -6.2802    0.5011    1.0770 C.ar    1  UNL1        0.1200
     25 N          -4.9553    0.4530    0.9609 N.ar    1  UNL1       -0.2163
     26 H           2.6671    1.0664    3.9499 H       1  UNL1        0.0350
     27 H           2.6525    2.6544    3.1258 H       1  UNL1        0.0350
     28 H           0.2672    1.4520    2.7931 H       1  UNL1        0.0581
     29 H          -2.2394    1.4282    0.8374 H       1  UNL1        0.0364
     30 H          -2.2248   -0.1697    1.6666 H       1  UNL1        0.0364
     31 H          -2.8496   -1.2149   -2.2908 H       1  UNL1        0.0658
     32 H           2.2351   -1.6145   -3.1506 H       1  UNL1        0.0625
     33 H           4.6661   -1.8159   -3.5817 H       1  UNL1        0.0618
     34 H           6.3046   -0.9476   -1.9374 H       1  UNL1        0.0618
     35 H           5.5444    0.1262    0.1452 H       1  UNL1        0.0624
     36 H           4.6106    1.1359    2.1073 H       1  UNL1        0.0581
     37 H          -7.2817   -0.9131   -1.6314 H       1  UNL1        0.1048
     38 H          -6.6787    0.9628    1.9741 H       1  UNL1        0.1048
@<TRIPOS>BOND
     1     1     2    1
     2     2     3    2
     3     3     4   ar
     4     4     5   ar
     5     5     6    1
     6     6     7    1
     7     7     8    2
     8     8     9    1
     9     9    10   ar
    10    10    11   ar
    11    11    12   ar
    12    12    13   ar
    13    13    14   ar
    14    14    15   ar
    15    15    16   ar
    16    16    17   ar
    17    17    18   ar
    18    18    19    2
    19     7    20    1
    20    20    21   ar
    21    21    22   ar
    22    22    23   ar
    23    23    24   ar
    24    24    25   ar
    25    19     1    1
    26    25    20   ar
    27    18     3   ar
    28    11     4   ar
    29    17    12   ar
    30     9     5   ar
    31     1    26    1
    32     1    27    1
    33     2    28    1
    34     6    29    1
    35     6    30    1
    36     8    31    1
    37    13    32    1
    38    14    33    1
    39    15    34    1
    40    16    35    1
    41    19    36    1
    42    22    37    1
    43    24    38    1
