@<TRIPOS>MOLECULE
*****
 46 52 0 0 0
SMALL
GASTEIGER

@<TRIPOS>ATOM
      1 C          -0.7395   -3.3758    2.5728 C.3     1  UNL1       -0.0148
      2 C           0.1968   -2.4896    1.8090 C.2     1  UNL1       -0.0719
      3 C          -0.5086   -1.5605    1.1484 C.ar    1  UNL1       -0.0127
      4 C          -0.0887   -0.4815    0.3294 C.ar    1  UNL1        0.0013
      5 C           1.2177   -0.0388    0.0597 C.ar    1  UNL1       -0.0205
      6 C           2.6209   -0.4199    0.3677 C.3     1  UNL1       -0.0001
      7 C           3.3895    0.7285   -0.3292 C.2     1  UNL1       -0.0334
      8 C           2.5279    1.6002   -0.9152 C.2     1  UNL1       -0.0436
      9 C           1.2267    1.1197   -0.6648 C.ar    1  UNL1        0.0171
     10 S          -0.2959    1.6983   -1.0177 S.2     1  UNL1       -0.0879
     11 C          -1.0608    0.3243   -0.2869 C.ar    1  UNL1        0.0290
     12 C          -2.5526    0.1049   -0.1849 C.ar    1  UNL1        0.0047
     13 C          -3.5708    0.7980   -0.9385 C.ar    1  UNL1       -0.0091
     14 C          -3.3711    1.6501   -2.0602 C.ar    1  UNL1       -0.0534
     15 C          -4.4144    2.3169   -2.7140 C.ar    1  UNL1       -0.0611
     16 C          -5.7175    2.1444   -2.2866 C.ar    1  UNL1       -0.0612
     17 C          -5.9734    1.2812   -1.2283 C.ar    1  UNL1       -0.0540
     18 C          -4.9331    0.5994   -0.5726 C.ar    1  UNL1       -0.0173
     19 C          -5.2773   -0.2993    0.4392 C.ar    1  UNL1       -0.0534
     20 C          -4.3091   -1.0560    1.0843 C.ar    1  UNL1       -0.0528
     21 C          -2.9589   -0.8836    0.7747 C.ar    1  UNL1       -0.0088
     22 C          -1.9314   -1.7424    1.4082 C.ar    1  UNL1       -0.0134
     23 C          -2.0812   -2.7941    2.2345 C.2     1  UNL1       -0.0719
     24 C           4.8587    0.8043   -0.3152 C.ar    1  UNL1       -0.0034
     25 C           5.6384   -0.1552    0.3417 C.ar    1  UNL1       -0.0514
     26 C           7.0310   -0.0610    0.3396 C.ar    1  UNL1       -0.0430
     27 C           7.6181    0.9994   -0.3253 C.ar    1  UNL1        0.0276
     28 N           6.9159    1.9487   -0.9729 N.ar    1  UNL1       -0.2627
     29 C           5.5638    1.8277   -0.9514 C.ar    1  UNL1        0.0350
     30 H          -0.5464   -3.3212    3.6482 H       1  UNL1        0.0350
     31 H          -0.6635   -4.4137    2.2359 H       1  UNL1        0.0350
     32 H           1.2690   -2.5969    1.8179 H       1  UNL1        0.0581
     33 H           2.8733   -1.3900   -0.0718 H       1  UNL1        0.0362
     34 H           2.8049   -0.4210    1.4466 H       1  UNL1        0.0362
     35 H           2.7490    2.4991   -1.4697 H       1  UNL1        0.0632
     36 H          -2.3884    1.7872   -2.4936 H       1  UNL1        0.0624
     37 H          -4.1969    2.9601   -3.5628 H       1  UNL1        0.0618
     38 H          -6.5337    2.6578   -2.7865 H       1  UNL1        0.0618
     39 H          -7.0081    1.1326   -0.9244 H       1  UNL1        0.0624
     40 H          -6.3197   -0.4520    0.7132 H       1  UNL1        0.0624
     41 H          -4.6300   -1.7767    1.8303 H       1  UNL1        0.0624
     42 H          -3.0089   -3.2011    2.6045 H       1  UNL1        0.0581
     43 H           5.1844   -0.9909    0.8664 H       1  UNL1        0.0624
     44 H           7.6412   -0.8002    0.8464 H       1  UNL1        0.0633
     45 H           8.6974    1.1165   -0.3556 H       1  UNL1        0.0829
     46 H           5.0554    2.6218   -1.4904 H       1  UNL1        0.0835
@<TRIPOS>BOND
     1     1     2    1
     2     2     3    2
     3     3     4   ar
     4     4     5   ar
     5     5     6    1
     6     6     7    1
     7     7     8    2
     8     8     9    1
     9     9    10   ar
    10    10    11   ar
    11    11    12   ar
    12    12    13   ar
    13    13    14   ar
    14    14    15   ar
    15    15    16   ar
    16    16    17   ar
    17    17    18   ar
    18    18    19   ar
    19    19    20   ar
    20    20    21   ar
    21    21    22   ar
    22    22    23    2
    23     7    24    1
    24    24    25   ar
    25    25    26   ar
    26    26    27   ar
    27    27    28   ar
    28    28    29   ar
    29    23     1    1
    30    29    24   ar
    31    22     3   ar
    32    11     4   ar
    33    21    12   ar
    34     9     5   ar
    35    18    13   ar
    36     1    30    1
    37     1    31    1
    38     2    32    1
    39     6    33    1
    40     6    34    1
    41     8    35    1
    42    14    36    1
    43    15    37    1
    44    16    38    1
    45    17    39    1
    46    19    40    1
    47    20    41    1
    48    23    42    1
    49    25    43    1
    50    26    44    1
    51    27    45    1
    52    29    46    1
