@<TRIPOS>MOLECULE
*****
 41 47 0 0 0
SMALL
GASTEIGER

@<TRIPOS>ATOM
      1 C          -2.3691   -3.5603   -0.0312 C.3     1  UNL1       -0.0148
      2 C          -3.2093   -2.3179   -0.0623 C.2     1  UNL1       -0.0719
      3 C          -2.4112   -1.2441   -0.0109 C.ar    1  UNL1       -0.0118
      4 C          -2.7108    0.1398   -0.0128 C.ar    1  UNL1        0.0118
      5 C          -3.8924    0.8675   -0.0671 C.ar    1  UNL1       -0.0107
      6 C          -5.3648    0.7746   -0.1447 C.3     1  UNL1       -0.0065
      7 C          -5.7177    2.2857   -0.1496 C.2     1  UNL1       -0.0777
      8 C          -4.6187    3.0787   -0.0852 C.2     1  UNL1       -0.0417
      9 C          -3.5427    2.1880   -0.0370 C.ar    1  UNL1        0.0435
     10 N          -2.2011    2.3379    0.0334 N.ar    1  UNL1       -0.3539
     11 C          -1.6560    1.0617    0.0507 C.ar    1  UNL1        0.0570
     12 C          -0.2339    0.6910    0.1209 C.ar    1  UNL1        0.0247
     13 C           0.8055    1.6048    0.1847 C.ar    1  UNL1        0.0380
     14 N           2.1131    1.2615    0.2506 N.ar    1  UNL1       -0.2536
     15 C           2.4156   -0.0593    0.2455 C.ar    1  UNL1        0.0817
     16 C           1.4469   -1.0577    0.1872 C.ar    1  UNL1       -0.0267
     17 C           0.1029   -0.6863    0.1238 C.ar    1  UNL1       -0.0050
     18 C          -1.0071   -1.6686    0.0568 C.ar    1  UNL1       -0.0133
     19 C          -0.9700   -3.0126    0.0460 C.2     1  UNL1       -0.0719
     20 C           3.8324   -0.3631    0.3247 C.ar    1  UNL1        0.0803
     21 S           4.5055   -1.5710    1.3752 S.2     1  UNL1       -0.0908
     22 C           6.1428   -1.2537    0.8747 C.ar    1  UNL1       -0.0128
     23 C           6.1023   -0.2736   -0.0521 C.ar    1  UNL1        0.0278
     24 C           6.9648    0.4671   -0.8743 C.ar    1  UNL1       -0.0156
     25 C           6.1248    1.3254   -1.5950 C.ar    1  UNL1        0.0932
     26 O           4.7817    1.1885   -1.2972 O.2     1  UNL1       -0.4617
     27 C           4.8502    0.2107   -0.3499 C.ar    1  UNL1        0.1510
     28 H          -2.5088   -4.1532   -0.9399 H       1  UNL1        0.0350
     29 H          -2.6005   -4.1705    0.8467 H       1  UNL1        0.0350
     30 H          -4.2861   -2.3061   -0.1174 H       1  UNL1        0.0581
     31 H          -5.7971    0.2809    0.7296 H       1  UNL1        0.0356
     32 H          -5.7034    0.2970   -1.0679 H       1  UNL1        0.0356
     33 H          -6.7355    2.6437   -0.1995 H       1  UNL1        0.0576
     34 H          -4.5829    4.1571   -0.0738 H       1  UNL1        0.0635
     35 H          -1.6928    3.2107    0.0663 H       1  UNL1        0.1659
     36 H           0.6301    2.6751    0.1861 H       1  UNL1        0.0836
     37 H           1.7365   -2.1018    0.1819 H       1  UNL1        0.0645
     38 H          -0.0900   -3.6349    0.0856 H       1  UNL1        0.0581
     39 H           6.9769   -1.8016    1.2890 H       1  UNL1        0.0701
     40 H           8.0402    0.4112   -0.9589 H       1  UNL1        0.0655
     41 H           6.3294    2.0777   -2.3454 H       1  UNL1        0.1030
@<TRIPOS>BOND
     1     1     2    1
     2     2     3    2
     3     3     4   ar
     4     4     5   ar
     5     5     6    1
     6     6     7    1
     7     7     8    2
     8     8     9    1
     9     9    10   ar
    10    10    11   ar
    11    11    12   ar
    12    12    13   ar
    13    13    14   ar
    14    14    15   ar
    15    15    16   ar
    16    16    17   ar
    17    17    18   ar
    18    18    19    2
    19    15    20    1
    20    20    21   ar
    21    21    22   ar
    22    22    23   ar
    23    23    24   ar
    24    24    25   ar
    25    25    26   ar
    26    26    27   ar
    27    19     1    1
    28    27    20   ar
    29    18     3   ar
    30    27    23   ar
    31    11     4   ar
    32    17    12   ar
    33     9     5   ar
    34     1    28    1
    35     1    29    1
    36     2    30    1
    37     6    31    1
    38     6    32    1
    39     7    33    1
    40     8    34    1
    41    10    35    1
    42    13    36    1
    43    16    37    1
    44    19    38    1
    45    22    39    1
    46    24    40    1
    47    25    41    1
