@<TRIPOS>MOLECULE
*****
 38 43 0 0 0
SMALL
GASTEIGER

@<TRIPOS>ATOM
      1 C          -1.1165   -3.6492    0.1629 C.3     1  UNL1       -0.0148
      2 C          -2.0874   -2.5051    0.1973 C.2     1  UNL1       -0.0719
      3 C          -1.4191   -1.3457    0.1417 C.ar    1  UNL1       -0.0114
      4 C          -1.8640    0.0083    0.1439 C.ar    1  UNL1        0.0169
      5 C          -3.1385    0.6327    0.2034 C.ar    1  UNL1        0.0080
      6 C          -4.4739    0.1861    0.2838 C.ar    1  UNL1       -0.0520
      7 C          -5.5170    1.1195    0.3256 C.ar    1  UNL1       -0.0611
      8 C          -5.2505    2.4851    0.2886 C.ar    1  UNL1       -0.0598
      9 C          -3.9388    2.9593    0.2090 C.ar    1  UNL1       -0.0378
     10 C          -2.9049    2.0155    0.1679 C.ar    1  UNL1        0.0475
     11 N          -1.5411    2.2070    0.0902 N.ar    1  UNL1       -0.3524
     12 C          -0.9011    1.0017    0.0749 C.ar    1  UNL1        0.0744
     13 C           0.5384    0.7895   -0.0004 C.ar    1  UNL1        0.0954
     14 N           1.3086    1.8949   -0.0606 N.ar    1  UNL1       -0.2523
     15 C           2.6464    1.6704   -0.1300 C.ar    1  UNL1        0.0366
     16 C           3.2637    0.4105   -0.1431 C.ar    1  UNL1        0.0089
     17 C           2.4072   -0.7037   -0.0781 C.ar    1  UNL1       -0.0422
     18 C           1.0237   -0.5309   -0.0053 C.ar    1  UNL1        0.0104
     19 C           0.0280   -1.6226    0.0671 C.ar    1  UNL1       -0.0119
     20 C           0.2134   -2.9535    0.0788 C.2     1  UNL1       -0.0719
     21 C           4.7272    0.2307   -0.2201 C.ar    1  UNL1        0.0402
     22 C           5.4832   -0.9345   -0.2415 C.ar    1  UNL1        0.0425
     23 N           6.8556   -0.7881   -0.3191 N.ar    1  UNL1       -0.2551
     24 C           7.1477    0.4901   -0.3569 C.ar    1  UNL1        0.0652
     25 S           5.8210    1.5661   -0.3028 S.2     1  UNL1       -0.0754
     26 H          -1.1871   -4.2527    1.0727 H       1  UNL1        0.0350
     27 H          -1.2848   -4.2820   -0.7135 H       1  UNL1        0.0350
     28 H          -3.1563   -2.6263    0.2578 H       1  UNL1        0.0581
     29 H          -4.7033   -0.8734    0.3138 H       1  UNL1        0.0624
     30 H          -6.5451    0.7714    0.3876 H       1  UNL1        0.0618
     31 H          -6.0741    3.1945    0.3221 H       1  UNL1        0.0618
     32 H          -3.7341    4.0247    0.1804 H       1  UNL1        0.0638
     33 H          -1.0686    3.0998    0.0497 H       1  UNL1        0.1660
     34 H           3.2235    2.5904   -0.1765 H       1  UNL1        0.0836
     35 H           2.8091   -1.7114   -0.0836 H       1  UNL1        0.0631
     36 H           1.1563   -3.4756    0.0357 H       1  UNL1        0.0581
     37 H           5.0859   -1.9414   -0.2025 H       1  UNL1        0.0841
     38 H           8.1673    0.8478   -0.4188 H       1  UNL1        0.0907
@<TRIPOS>BOND
     1     1     2    1
     2     2     3    2
     3     3     4   ar
     4     4     5   ar
     5     5     6   ar
     6     6     7   ar
     7     7     8   ar
     8     8     9   ar
     9     9    10   ar
    10    10    11   ar
    11    11    12   ar
    12    12    13   ar
    13    13    14   ar
    14    14    15   ar
    15    15    16   ar
    16    16    17   ar
    17    17    18   ar
    18    18    19   ar
    19    19    20    2
    20    16    21    1
    21    21    22   ar
    22    22    23   ar
    23    23    24   ar
    24    24    25   ar
    25    20     1    1
    26    25    21   ar
    27    19     3   ar
    28    12     4   ar
    29    18    13   ar
    30    10     5   ar
    31     1    26    1
    32     1    27    1
    33     2    28    1
    34     6    29    1
    35     7    30    1
    36     8    31    1
    37     9    32    1
    38    11    33    1
    39    15    34    1
    40    17    35    1
    41    20    36    1
    42    22    37    1
    43    24    38    1
