@<TRIPOS>MOLECULE
*****
 47 54 0 0 0
SMALL
GASTEIGER

@<TRIPOS>ATOM
      1 C          -2.3397   -4.3033    0.4902 C.3     1  UNL1        0.0000
      2 C          -1.0850   -3.4834    0.5233 C.2     1  UNL1        0.0000
      3 C          -1.3950   -2.1990    0.3102 C.ar    1  UNL1        0.0000
      4 C          -0.6073   -1.0290    0.2121 C.ar    1  UNL1        0.0000
      5 C           0.7861   -0.7825    0.2367 C.ar    1  UNL1        0.0000
      6 C           1.9390   -1.5498    0.4220 C.ar    1  UNL1        0.0000
      7 N           3.1695   -0.9804    0.3586 N.ar    1  UNL1        0.0000
      8 C           3.2906    0.3474    0.1106 C.ar    1  UNL1        0.0000
      9 C           2.1964    1.1843   -0.1027 C.ar    1  UNL1        0.0000
     10 C           0.9399    0.5795   -0.0277 C.ar    1  UNL1        0.0000
     11 N          -0.3189    1.1163   -0.2095 N.ar    1  UNL1        0.0000
     12 C          -1.2801    0.1664    0.0052 C.ar    1  UNL1        0.0000
     13 C          -2.7047    0.4026   -0.0947 C.ar    1  UNL1        0.0000
     14 C          -3.4910   -0.7373   -0.1093 C.ar    1  UNL1        0.0000
     15 C          -4.9458   -0.6402   -0.3601 C.ar    1  UNL1        0.0000
     16 C          -5.5951    0.5191   -0.5498 C.ar    1  UNL1        0.0000
     17 C          -4.8544    1.7499   -0.4543 C.ar    1  UNL1        0.0000
     18 C          -5.4153    2.9707   -0.5316 C.2     1  UNL1        0.0000
     19 SI         -4.1561    4.2997   -0.2153 Si      1  UNL1        0.0000
     20 C          -2.8738    2.9452    0.0201 C.2     1  UNL1        0.0000
     21 C          -3.3943    1.7142   -0.1832 C.ar    1  UNL1        0.0000
     22 C          -2.8412   -2.0513    0.1177 C.ar    1  UNL1        0.0000
     23 C          -3.3988   -3.2715    0.2227 C.2     1  UNL1        0.0000
     24 C           4.6798    0.8252    0.0710 C.ar    1  UNL1        0.0000
     25 S           5.0884    2.4772    0.4146 S.2     1  UNL1        0.0000
     26 C           6.7755    2.2307    0.1899 C.ar    1  UNL1        0.0000
     27 C           7.0245    0.9290   -0.1307 C.ar    1  UNL1        0.0000
     28 S           8.5743    0.0789   -0.4782 S.2     1  UNL1        0.0000
     29 C           7.5661   -1.3431   -0.7013 C.ar    1  UNL1        0.0000
     30 C           6.1901   -1.1595   -0.5246 C.ar    1  UNL1        0.0000
     31 C           5.8500    0.1792   -0.1838 C.ar    1  UNL1        0.0000
     32 H          -2.5100   -4.8021    1.4489 H       1  UNL1        0.0000
     33 H          -2.3042   -5.0468   -0.3114 H       1  UNL1        0.0000
     34 H          -0.1021   -3.8928    0.6866 H       1  UNL1        0.0000
     35 H           1.9192   -2.6137    0.6226 H       1  UNL1        0.0000
     36 H           2.3005    2.2382   -0.3243 H       1  UNL1        0.0000
     37 H          -0.4841    2.0658   -0.5019 H       1  UNL1        0.0000
     38 H          -5.5105   -1.5647   -0.4169 H       1  UNL1        0.0000
     39 H          -6.6619    0.5428   -0.7408 H       1  UNL1        0.0000
     40 H          -6.4558    3.2018   -0.6962 H       1  UNL1        0.0000
     41 H          -3.8685    5.1231   -1.4140 H       1  UNL1        0.0000
     42 H          -4.4071    5.0509    1.0374 H       1  UNL1        0.0000
     43 H          -1.8833    3.2322    0.3185 H       1  UNL1        0.0000
     44 H          -4.4473   -3.5115    0.1472 H       1  UNL1        0.0000
     45 H           7.5003    3.0253    0.3004 H       1  UNL1        0.0000
     46 H           8.0656   -2.2669   -0.9593 H       1  UNL1        0.0000
     47 H           5.4756   -1.9667   -0.6361 H       1  UNL1        0.0000
@<TRIPOS>BOND
     1     1     2    1
     2     2     3    2
     3     3     4   ar
     4     4     5   ar
     5     5     6   ar
     6     6     7   ar
     7     7     8   ar
     8     8     9   ar
     9     9    10   ar
    10    10    11   ar
    11    11    12   ar
    12    12    13   ar
    13    13    14   ar
    14    14    15   ar
    15    15    16   ar
    16    16    17   ar
    17    17    18    2
    18    18    19    1
    19    19    20    1
    20    20    21    2
    21    14    22   ar
    22    22    23    2
    23     8    24    1
    24    24    25   ar
    25    25    26   ar
    26    26    27   ar
    27    27    28   ar
    28    28    29   ar
    29    29    30   ar
    30    30    31   ar
    31    23     1    1
    32    31    24   ar
    33    22     3   ar
    34    31    27   ar
    35    12     4   ar
    36    21    13   ar
    37    10     5   ar
    38    21    17   ar
    39     1    32    1
    40     1    33    1
    41     2    34    1
    42     6    35    1
    43     9    36    1
    44    11    37    1
    45    15    38    1
    46    16    39    1
    47    18    40    1
    48    19    41    1
    49    19    42    1
    50    20    43    1
    51    23    44    1
    52    26    45    1
    53    29    46    1
    54    30    47    1
