@<TRIPOS>MOLECULE
*****
 47 54 0 0 0
SMALL
GASTEIGER

@<TRIPOS>ATOM
      1 C          -3.0844    3.9031    0.3512 C.3     1  UNL1       -0.0148
      2 C          -1.8043    3.1268    0.2688 C.2     1  UNL1       -0.0719
      3 C          -2.0743    1.8152    0.2089 C.ar    1  UNL1       -0.0114
      4 C          -1.2143    0.6823    0.1215 C.ar    1  UNL1        0.0169
      5 C           0.1982    0.5474    0.0683 C.ar    1  UNL1        0.0261
      6 C           1.2922    1.4163    0.0782 C.ar    1  UNL1        0.0380
      7 N           2.5611    0.9387    0.0118 N.ar    1  UNL1       -0.2537
      8 C           2.7891   -0.3964   -0.0657 C.ar    1  UNL1        0.0801
      9 C           1.7554   -1.3320   -0.0812 C.ar    1  UNL1       -0.0112
     10 C           0.4565   -0.8210   -0.0119 C.ar    1  UNL1        0.0510
     11 N          -0.7554   -1.4786   -0.0068 N.ar    1  UNL1       -0.3535
     12 C          -1.7879   -0.5842    0.0739 C.ar    1  UNL1        0.0566
     13 C          -3.2254   -0.8413    0.1073 C.ar    1  UNL1        0.0173
     14 C          -3.8952   -2.0674    0.0650 C.ar    1  UNL1        0.0295
     15 C          -3.4128   -3.3491   -0.0176 C.ar    1  UNL1        0.1000
     16 O          -4.4493   -4.2447   -0.0306 O.2     1  UNL1       -0.4698
     17 C          -5.6119   -3.5326    0.0445 C.ar    1  UNL1        0.0994
     18 C          -5.3204   -2.1973    0.1047 C.ar    1  UNL1        0.0205
     19 C          -6.2405   -1.1622    0.1888 C.ar    1  UNL1       -0.0504
     20 C          -5.5838    0.0905    0.2330 C.ar    1  UNL1       -0.0527
     21 C          -4.1508    0.2639    0.1954 C.ar    1  UNL1       -0.0078
     22 C          -3.5328    1.6172    0.2461 C.ar    1  UNL1       -0.0134
     23 C          -4.1249    2.8218    0.3285 C.2     1  UNL1       -0.0719
     24 C           4.2186   -0.7623   -0.1314 C.ar    1  UNL1        0.0450
     25 S           4.7352   -2.4268   -0.2284 S.2     1  UNL1       -0.0942
     26 C           6.4115   -2.0325   -0.2661 C.ar    1  UNL1       -0.0196
     27 C           6.5795   -0.6793   -0.2068 C.ar    1  UNL1       -0.0288
     28 C           7.7198    0.2806   -0.1991 C.3     1  UNL1       -0.0081
     29 C           6.9672    1.6080   -0.1102 C.2     1  UNL1       -0.0791
     30 C           5.6297    1.4116   -0.0746 C.2     1  UNL1       -0.0568
     31 C           5.3484    0.0190   -0.1319 C.ar    1  UNL1       -0.0056
     32 H          -3.1947    4.5734   -0.5063 H       1  UNL1        0.0350
     33 H          -3.1365    4.4798    1.2793 H       1  UNL1        0.0350
     34 H          -0.8311    3.5882    0.2612 H       1  UNL1        0.0581
     35 H           1.1989    2.4930    0.1376 H       1  UNL1        0.0836
     36 H           1.9295   -2.3977   -0.1430 H       1  UNL1        0.0660
     37 H          -0.8431   -2.4806   -0.0565 H       1  UNL1        0.1659
     38 H          -2.4400   -3.8099   -0.0734 H       1  UNL1        0.1036
     39 H          -6.5201   -4.1185    0.0435 H       1  UNL1        0.1035
     40 H          -7.3157   -1.2706    0.2182 H       1  UNL1        0.0625
     41 H          -6.2183    0.9736    0.3000 H       1  UNL1        0.0624
     42 H          -5.1834    3.0224    0.3735 H       1  UNL1        0.0581
     43 H           7.1604   -2.8094   -0.3285 H       1  UNL1        0.0696
     44 H           8.3647    0.1394    0.6726 H       1  UNL1        0.0356
     45 H           8.3043    0.2254   -1.1216 H       1  UNL1        0.0356
     46 H           7.4537    2.5712   -0.0804 H       1  UNL1        0.0575
     47 H           4.8775    2.1857   -0.0122 H       1  UNL1        0.0621
@<TRIPOS>BOND
     1     1     2    1
     2     2     3    2
     3     3     4   ar
     4     4     5   ar
     5     5     6   ar
     6     6     7   ar
     7     7     8   ar
     8     8     9   ar
     9     9    10   ar
    10    10    11   ar
    11    11    12   ar
    12    12    13   ar
    13    13    14   ar
    14    14    15   ar
    15    15    16   ar
    16    16    17   ar
    17    17    18   ar
    18    18    19   ar
    19    19    20   ar
    20    20    21   ar
    21    21    22   ar
    22    22    23    2
    23     8    24    1
    24    24    25   ar
    25    25    26   ar
    26    26    27   ar
    27    27    28    1
    28    28    29    1
    29    29    30    2
    30    30    31    1
    31    23     1    1
    32    31    24   ar
    33    22     3   ar
    34    31    27   ar
    35    12     4   ar
    36    21    13   ar
    37    10     5   ar
    38    18    14   ar
    39     1    32    1
    40     1    33    1
    41     2    34    1
    42     6    35    1
    43     9    36    1
    44    11    37    1
    45    15    38    1
    46    17    39    1
    47    19    40    1
    48    20    41    1
    49    23    42    1
    50    26    43    1
    51    28    44    1
    52    28    45    1
    53    29    46    1
    54    30    47    1
