@<TRIPOS>MOLECULE
*****
 43 49 0 0 0
SMALL
GASTEIGER

@<TRIPOS>ATOM
      1 C          -2.2194   -3.7450    2.0214 C.3     1  UNL1       -0.0148
      2 C          -0.9725   -3.0343    1.5827 C.2     1  UNL1       -0.0718
      3 C          -1.3035   -1.8940    0.9631 C.ar    1  UNL1       -0.0098
      4 C          -0.5032   -0.8818    0.3736 C.ar    1  UNL1        0.0374
      5 C           0.8821   -0.6693    0.2059 C.ar    1  UNL1        0.0466
      6 C           2.0667   -1.3257    0.5268 C.ar    1  UNL1        0.0396
      7 N           3.2631   -0.7813    0.1821 N.ar    1  UNL1       -0.2544
      8 C           3.3183    0.4059   -0.4775 C.ar    1  UNL1        0.0708
      9 C           2.1882    1.1296   -0.8375 C.ar    1  UNL1        0.0070
     10 C           0.9856    0.5443   -0.4699 C.ar    1  UNL1        0.1398
     11 O          -0.2513    1.0724   -0.7179 O.2     1  UNL1       -0.4540
     12 C          -1.1468    0.1975   -0.2009 C.ar    1  UNL1        0.1452
     13 C          -2.5788    0.4149   -0.2697 C.ar    1  UNL1        0.0338
     14 C          -3.2671    1.4945   -0.8428 C.ar    1  UNL1        0.0004
     15 C          -2.6985    2.5810   -1.4652 C.ar    1  UNL1       -0.0159
     16 S          -3.8839    3.6901   -2.0367 S.2     1  UNL1       -0.1039
     17 C          -5.1772    2.7227   -1.4540 C.ar    1  UNL1       -0.0166
     18 C          -4.7106    1.5861   -0.8414 C.ar    1  UNL1       -0.0102
     19 C          -5.5712    0.6380   -0.2851 C.ar    1  UNL1       -0.0529
     20 C          -4.8793   -0.4516    0.2934 C.ar    1  UNL1       -0.0527
     21 C          -3.4509   -0.5772    0.3113 C.ar    1  UNL1       -0.0063
     22 C          -2.7723   -1.7522    0.9376 C.ar    1  UNL1       -0.0133
     23 C          -3.3083   -2.8226    1.5498 C.2     1  UNL1       -0.0719
     24 C           4.6688    0.8800   -0.7887 C.2     1  UNL1       -0.0182
     25 C           5.0604    2.0002   -1.4233 C.2     1  UNL1       -0.0565
     26 C           6.4989    2.0400   -1.4972 C.2     1  UNL1       -0.0650
     27 C           7.0052    0.9474   -0.9102 C.2     1  UNL1       -0.0796
     28 C           5.8878    0.0849   -0.3922 C.3     1  UNL1       -0.0072
     29 H          -2.3017   -4.7261    1.5446 H       1  UNL1        0.0350
     30 H          -2.2453   -3.8597    3.1090 H       1  UNL1        0.0350
     31 H           0.0235   -3.4095    1.7545 H       1  UNL1        0.0581
     32 H           2.1066   -2.2731    1.0501 H       1  UNL1        0.0837
     33 H           2.2161    2.0731   -1.3611 H       1  UNL1        0.0676
     34 H          -1.6557    2.8100   -1.6296 H       1  UNL1        0.0700
     35 H          -6.1987    3.0473   -1.5969 H       1  UNL1        0.0699
     36 H          -6.6517    0.7057   -0.2836 H       1  UNL1        0.0624
     37 H          -5.4858   -1.2337    0.7485 H       1  UNL1        0.0624
     38 H          -4.3573   -3.0245    1.6995 H       1  UNL1        0.0581
     39 H           4.4329    2.7774   -1.8312 H       1  UNL1        0.0621
     40 H           7.0624    2.8366   -1.9587 H       1  UNL1        0.0615
     41 H           8.0536    0.7091   -0.8159 H       1  UNL1        0.0575
     42 H           5.9071   -0.8979   -0.8743 H       1  UNL1        0.0356
     43 H           5.9636   -0.0291    0.6941 H       1  UNL1        0.0356
@<TRIPOS>BOND
     1     1     2    1
     2     2     3    2
     3     3     4   ar
     4     4     5   ar
     5     5     6   ar
     6     6     7   ar
     7     7     8   ar
     8     8     9   ar
     9     9    10   ar
    10    10    11   ar
    11    11    12   ar
    12    12    13   ar
    13    13    14   ar
    14    14    15   ar
    15    15    16   ar
    16    16    17   ar
    17    17    18   ar
    18    18    19   ar
    19    19    20   ar
    20    20    21   ar
    21    21    22   ar
    22    22    23    2
    23     8    24    1
    24    24    25    2
    25    25    26    1
    26    26    27    2
    27    27    28    1
    28    23     1    1
    29    28    24    1
    30    22     3   ar
    31    12     4   ar
    32    21    13   ar
    33    10     5   ar
    34    18    14   ar
    35     1    29    1
    36     1    30    1
    37     2    31    1
    38     6    32    1
    39     9    33    1
    40    15    34    1
    41    17    35    1
    42    19    36    1
    43    20    37    1
    44    23    38    1
    45    25    39    1
    46    26    40    1
    47    27    41    1
    48    28    42    1
    49    28    43    1
