@<TRIPOS>MOLECULE
*****
 47 54 0 0 0
SMALL
GASTEIGER

@<TRIPOS>ATOM
      1 C          -1.6535   -4.1762   -0.6857 C.3     1  UNL1        0.0000
      2 C          -2.8158   -3.2291   -0.6695 C.2     1  UNL1        0.0000
      3 C          -2.3924   -1.9968   -0.3488 C.ar    1  UNL1        0.0000
      4 C          -3.0993   -0.7676   -0.2016 C.ar    1  UNL1        0.0000
      5 C          -4.4733   -0.4281   -0.3258 C.ar    1  UNL1        0.0000
      6 C          -5.6550   -1.1157   -0.6352 C.ar    1  UNL1        0.0000
      7 N          -6.8474   -0.4699   -0.6693 N.ar    1  UNL1        0.0000
      8 C          -6.8806    0.8531   -0.3936 C.ar    1  UNL1        0.0000
      9 C          -5.7747    1.6268   -0.0755 C.ar    1  UNL1        0.0000
     10 C          -4.5614    0.9412   -0.0538 C.ar    1  UNL1        0.0000
     11 N          -3.2889    1.3990    0.2168 N.ar    1  UNL1        0.0000
     12 C          -2.3800    0.3791    0.1267 C.ar    1  UNL1        0.0000
     13 C          -0.9330    0.4163    0.3320 C.ar    1  UNL1        0.0000
     14 C          -0.1252    1.5168    0.6410 C.ar    1  UNL1        0.0000
     15 C          -0.4516    2.8356    0.8380 C.ar    1  UNL1        0.0000
     16 O           0.6711    3.5637    1.1247 O.2     1  UNL1        0.0000
     17 C           1.7324    2.7057    1.1159 C.ar    1  UNL1        0.0000
     18 C           1.2970    1.4401    0.8187 C.ar    1  UNL1        0.0000
     19 C           2.0590    0.2755    0.7127 C.ar    1  UNL1        0.0000
     20 C           1.2661   -0.8526    0.3958 C.ar    1  UNL1        0.0000
     21 C          -0.1614   -0.8013    0.2097 C.ar    1  UNL1        0.0000
     22 C          -0.9358   -2.0237   -0.1395 C.ar    1  UNL1        0.0000
     23 C          -0.5004   -3.2820   -0.3310 C.2     1  UNL1        0.0000
     24 C           3.4944    0.2466    0.8731 C.ar    1  UNL1        0.0000
     25 S           4.1815   -0.3099    2.3604 S.2     1  UNL1        0.0000
     26 C           5.8026   -0.0579    1.8115 C.ar    1  UNL1        0.0000
     27 C           5.8092    0.4264    0.5297 C.ar    1  UNL1        0.0000
     28 C           6.8974    0.7688   -0.3360 C.2     1  UNL1        0.0000
     29 C           6.5317    1.2217   -1.5575 C.2     1  UNL1        0.0000
     30 SI          4.6215    1.2584   -1.7446 Si      1  UNL1        0.0000
     31 C           4.4964    0.5975    0.0173 C.ar    1  UNL1        0.0000
     32 H          -1.7801   -4.9701    0.0579 H       1  UNL1        0.0000
     33 H          -1.5191   -4.6183   -1.6779 H       1  UNL1        0.0000
     34 H          -3.8270   -3.5307   -0.8855 H       1  UNL1        0.0000
     35 H          -5.6879   -2.1742   -0.8647 H       1  UNL1        0.0000
     36 H          -7.8698    1.3003   -0.4367 H       1  UNL1        0.0000
     37 H          -5.8575    2.6849    0.1384 H       1  UNL1        0.0000
     38 H          -3.0837    2.3566    0.4518 H       1  UNL1        0.0000
     39 H          -1.3566    3.4225    0.8251 H       1  UNL1        0.0000
     40 H           2.6931    3.1502    1.3384 H       1  UNL1        0.0000
     41 H           1.7797   -1.8081    0.2825 H       1  UNL1        0.0000
     42 H           0.5157   -3.6367   -0.2568 H       1  UNL1        0.0000
     43 H           6.6380   -0.2848    2.4608 H       1  UNL1        0.0000
     44 H           7.9308    0.6669   -0.0263 H       1  UNL1        0.0000
     45 H           7.1711    1.5344   -2.3664 H       1  UNL1        0.0000
     46 H           4.1825    0.2924   -2.7853 H       1  UNL1        0.0000
     47 H           4.1402    2.6535   -1.9104 H       1  UNL1        0.0000
@<TRIPOS>BOND
     1     1     2    1
     2     2     3    2
     3     3     4   ar
     4     4     5   ar
     5     5     6   ar
     6     6     7   ar
     7     7     8   ar
     8     8     9   ar
     9     9    10   ar
    10    10    11   ar
    11    11    12   ar
    12    12    13   ar
    13    13    14   ar
    14    14    15   ar
    15    15    16   ar
    16    16    17   ar
    17    17    18   ar
    18    18    19   ar
    19    19    20   ar
    20    20    21   ar
    21    21    22   ar
    22    22    23    2
    23    19    24    1
    24    24    25   ar
    25    25    26   ar
    26    26    27   ar
    27    27    28    1
    28    28    29    2
    29    29    30    1
    30    30    31    1
    31    23     1    1
    32    31    24   ar
    33    22     3   ar
    34    31    27   ar
    35    12     4   ar
    36    21    13   ar
    37    10     5   ar
    38    18    14   ar
    39     1    32    1
    40     1    33    1
    41     2    34    1
    42     6    35    1
    43     8    36    1
    44     9    37    1
    45    11    38    1
    46    15    39    1
    47    17    40    1
    48    20    41    1
    49    23    42    1
    50    26    43    1
    51    28    44    1
    52    29    45    1
    53    30    46    1
    54    30    47    1
