@<TRIPOS>MOLECULE
*****
 40 45 0 0 0
SMALL
GASTEIGER

@<TRIPOS>ATOM
      1 C          -3.5355    3.3449    0.3481 C.3     1  UNL1       -0.0148
      2 C          -2.1558    2.7611    0.3074 C.2     1  UNL1       -0.0718
      3 C          -2.2367    1.4414    0.0960 C.ar    1  UNL1       -0.0100
      4 C          -1.2269    0.4507   -0.0234 C.ar    1  UNL1        0.0337
      5 C           0.1814    0.5032    0.0363 C.ar    1  UNL1        0.0968
      6 N           1.0162    1.5536    0.2301 N.ar    1  UNL1       -0.2522
      7 C           2.3353    1.2353    0.2259 C.ar    1  UNL1        0.0376
      8 C           2.9009   -0.0342    0.0630 C.ar    1  UNL1        0.0204
      9 C           2.0059   -1.0954   -0.1444 C.ar    1  UNL1       -0.0256
     10 C           0.6403   -0.7996   -0.1518 C.ar    1  UNL1        0.0667
     11 N          -0.4614   -1.6103   -0.3254 N.ar    1  UNL1       -0.3524
     12 C          -1.6119   -0.8655   -0.2469 C.ar    1  UNL1        0.0589
     13 C          -3.0027   -1.3270   -0.3719 C.ar    1  UNL1        0.0248
     14 C          -3.3703   -2.6465   -0.5950 C.ar    1  UNL1        0.0373
     15 N          -4.6526   -3.0673   -0.7086 N.ar    1  UNL1       -0.2626
     16 C          -5.6150   -2.1252   -0.5947 C.ar    1  UNL1        0.0282
     17 C          -5.3661   -0.7799   -0.3722 C.ar    1  UNL1       -0.0352
     18 C          -4.0401   -0.3652   -0.2574 C.ar    1  UNL1       -0.0056
     19 C          -3.6460    1.0440   -0.0193 C.ar    1  UNL1       -0.0132
     20 C          -4.4102    2.1407    0.1255 C.2     1  UNL1       -0.0719
     21 C           4.3581   -0.2634    0.0927 C.ar    1  UNL1        0.0725
     22 C           5.2402    0.5164    0.8431 C.ar    1  UNL1       -0.0356
     23 C           6.6046    0.2299    0.8127 C.ar    1  UNL1       -0.0583
     24 C           7.0616   -0.8274    0.0393 C.ar    1  UNL1       -0.0436
     25 C           6.1297   -1.5616   -0.6700 C.ar    1  UNL1        0.0283
     26 N           4.8023   -1.3075   -0.6556 N.ar    1  UNL1       -0.2549
     27 H          -3.7408    3.8047    1.3192 H       1  UNL1        0.0350
     28 H          -3.6750    4.0834   -0.4469 H       1  UNL1        0.0350
     29 H          -1.2416    3.3228    0.4293 H       1  UNL1        0.0581
     30 H           2.9712    2.1089    0.3548 H       1  UNL1        0.0836
     31 H           2.3643   -2.1100   -0.2918 H       1  UNL1        0.0646
     32 H          -0.4110   -2.6060   -0.4864 H       1  UNL1        0.1660
     33 H          -2.6356   -3.4382   -0.6939 H       1  UNL1        0.0836
     34 H          -6.6329   -2.4936   -0.6908 H       1  UNL1        0.0830
     35 H          -6.1935   -0.0855   -0.2927 H       1  UNL1        0.0639
     36 H          -5.4870    2.1867    0.0922 H       1  UNL1        0.0581
     37 H           4.8863    1.3314    1.4658 H       1  UNL1        0.0639
     38 H           7.3022    0.8271    1.3932 H       1  UNL1        0.0619
     39 H           8.1158   -1.0759   -0.0067 H       1  UNL1        0.0633
     40 H           6.4323   -2.4013   -1.2891 H       1  UNL1        0.0830
@<TRIPOS>BOND
     1     1     2    1
     2     2     3    2
     3     3     4   ar
     4     4     5   ar
     5     5     6   ar
     6     6     7   ar
     7     7     8   ar
     8     8     9   ar
     9     9    10   ar
    10    10    11   ar
    11    11    12   ar
    12    12    13   ar
    13    13    14   ar
    14    14    15   ar
    15    15    16   ar
    16    16    17   ar
    17    17    18   ar
    18    18    19   ar
    19    19    20    2
    20     8    21    1
    21    21    22   ar
    22    22    23   ar
    23    23    24   ar
    24    24    25   ar
    25    25    26   ar
    26    20     1    1
    27    26    21   ar
    28    19     3   ar
    29    12     4   ar
    30    18    13   ar
    31    10     5   ar
    32     1    27    1
    33     1    28    1
    34     2    29    1
    35     7    30    1
    36     9    31    1
    37    11    32    1
    38    14    33    1
    39    16    34    1
    40    17    35    1
    41    20    36    1
    42    22    37    1
    43    23    38    1
    44    24    39    1
    45    25    40    1
