@<TRIPOS>MOLECULE
*****
 42 48 0 0 0
SMALL
GASTEIGER

@<TRIPOS>ATOM
      1 C           3.0515   -3.2782    1.1169 C.3     1  UNL1       -0.0148
      2 C           1.7904   -2.5330    0.7881 C.2     1  UNL1       -0.0717
      3 C           2.1091   -1.3449    0.2630 C.ar    1  UNL1       -0.0069
      4 C           1.3197   -0.2827   -0.2047 C.ar    1  UNL1        0.0712
      5 C          -0.0311   -0.0016   -0.3306 C.ar    1  UNL1        0.1818
      6 O          -1.2441   -0.5623   -0.0924 O.2     1  UNL1       -0.4509
      7 C          -2.1600    0.3896   -0.4960 C.ar    1  UNL1        0.1399
      8 C          -1.5498    1.5251   -1.0067 C.ar    1  UNL1        0.0273
      9 C          -0.1935    1.2211   -0.8678 C.ar    1  UNL1        0.1747
     10 O           1.0202    1.7983   -1.1234 O.2     1  UNL1       -0.4508
     11 C           1.9196    0.8545   -0.7057 C.ar    1  UNL1        0.1476
     12 C           3.3601    1.0860   -0.8082 C.ar    1  UNL1        0.0257
     13 C           3.9045    2.2623   -1.3266 C.ar    1  UNL1       -0.0505
     14 C           5.2904    2.4108   -1.3926 C.ar    1  UNL1       -0.0611
     15 C           6.1319    1.3899   -0.9433 C.ar    1  UNL1       -0.0611
     16 C           5.5995    0.2067   -0.4218 C.ar    1  UNL1       -0.0533
     17 C           4.2141    0.0363   -0.3462 C.ar    1  UNL1       -0.0069
     18 C           3.5726   -1.1958    0.1970 C.ar    1  UNL1       -0.0132
     19 C           4.1286   -2.3154    0.6912 C.2     1  UNL1       -0.0719
     20 C          -3.5439   -0.0102   -0.3297 C.ar    1  UNL1        0.0256
     21 C          -3.9998   -1.3321   -0.5711 C.ar    1  UNL1       -0.0505
     22 C          -5.3636   -1.7500   -0.4470 C.ar    1  UNL1       -0.0605
     23 C          -6.4151   -0.8930   -0.0639 C.ar    1  UNL1       -0.0535
     24 C          -5.9658    0.4030    0.1897 C.ar    1  UNL1       -0.0102
     25 C          -6.8165    1.4011    0.5959 C.ar    1  UNL1       -0.0166
     26 S          -5.9693    2.8703    0.8601 S.2     1  UNL1       -0.1039
     27 C          -4.4596    2.1628    0.4338 C.ar    1  UNL1       -0.0159
     28 C          -4.5914    0.8423    0.0678 C.ar    1  UNL1       -0.0002
     29 H           3.1153   -4.2127    0.5518 H       1  UNL1        0.0350
     30 H           3.1158   -3.4895    2.1884 H       1  UNL1        0.0350
     31 H           0.7911   -2.9057    0.9546 H       1  UNL1        0.0581
     32 H          -2.0120    2.4089   -1.4163 H       1  UNL1        0.0693
     33 H           3.2576    3.0618   -1.6786 H       1  UNL1        0.0625
     34 H           5.7169    3.3261   -1.7960 H       1  UNL1        0.0618
     35 H           7.2106    1.5168   -0.9996 H       1  UNL1        0.0618
     36 H           6.2779   -0.5693   -0.0802 H       1  UNL1        0.0624
     37 H           5.1829   -2.5239    0.7836 H       1  UNL1        0.0581
     38 H          -3.2708   -2.0835   -0.8803 H       1  UNL1        0.0625
     39 H          -5.5983   -2.7929   -0.6631 H       1  UNL1        0.0618
     40 H          -7.4398   -1.2288    0.0259 H       1  UNL1        0.0624
     41 H          -7.8840    1.3571    0.7627 H       1  UNL1        0.0699
     42 H          -3.5717    2.7748    0.4917 H       1  UNL1        0.0700
@<TRIPOS>BOND
     1     1     2    1
     2     2     3    2
     3     3     4   ar
     4     4     5   ar
     5     5     6   ar
     6     6     7   ar
     7     7     8   ar
     8     8     9   ar
     9     9    10   ar
    10    10    11   ar
    11    11    12   ar
    12    12    13   ar
    13    13    14   ar
    14    14    15   ar
    15    15    16   ar
    16    16    17   ar
    17    17    18   ar
    18    18    19    2
    19     7    20    1
    20    20    21   ar
    21    21    22   ar
    22    22    23   ar
    23    23    24   ar
    24    24    25   ar
    25    25    26   ar
    26    26    27   ar
    27    27    28   ar
    28    19     1    1
    29    28    20   ar
    30    18     3   ar
    31    28    24   ar
    32    11     4   ar
    33    17    12   ar
    34     9     5   ar
    35     1    29    1
    36     1    30    1
    37     2    31    1
    38     8    32    1
    39    13    33    1
    40    14    34    1
    41    15    35    1
    42    16    36    1
    43    19    37    1
    44    21    38    1
    45    22    39    1
    46    23    40    1
    47    25    41    1
    48    27    42    1
