@<TRIPOS>MOLECULE
*****
 48 55 0 0 0
SMALL
GASTEIGER

@<TRIPOS>ATOM
      1 SI          1.9202   -0.5241   -4.2391 Si      1  UNL1        0.0000
      2 C           2.9088   -0.3132   -2.6744 C.2     1  UNL1        0.0000
      3 C           2.1085   -0.1596   -1.5987 C.ar    1  UNL1        0.0000
      4 C           2.5748    0.0183   -0.2252 C.ar    1  UNL1        0.0000
      5 C           1.6604    0.1650    0.7575 C.ar    1  UNL1        0.0000
      6 C           0.2010    0.1372    0.5032 C.ar    1  UNL1        0.0000
      7 C          -0.6776    0.2862    1.5803 C.ar    1  UNL1        0.0000
      8 C          -2.0794    0.2693    1.3782 C.ar    1  UNL1        0.0000
      9 C          -3.0636    0.4135    2.4091 C.ar    1  UNL1        0.0000
     10 C          -2.7777    0.5878    3.7448 C.ar    1  UNL1        0.0000
     11 S          -4.2013    0.7260    4.6974 S.2     1  UNL1        0.0000
     12 C          -5.2206    0.5521    3.3276 C.ar    1  UNL1        0.0000
     13 C          -4.4917    0.3932    2.1734 C.ar    1  UNL1        0.0000
     14 C          -5.0449    0.2291    0.9066 C.ar    1  UNL1        0.0000
     15 C          -6.4593    0.1910    0.5390 C.2     1  UNL1        0.0000
     16 C          -6.6537    0.0164   -0.7799 C.2     1  UNL1        0.0000
     17 SI         -5.0559   -0.1263   -1.7527 Si      1  UNL1        0.0000
     18 C          -4.0647    0.0835   -0.1296 C.ar    1  UNL1        0.0000
     19 C          -2.6341    0.0989    0.0659 C.ar    1  UNL1        0.0000
     20 C          -1.7118   -0.0495   -0.9946 C.ar    1  UNL1        0.0000
     21 C          -0.3179   -0.0331   -0.7982 C.ar    1  UNL1        0.0000
     22 C           0.6566   -0.1890   -1.9046 C.ar    1  UNL1        0.0000
     23 C           0.3655   -0.3654   -3.2112 C.2     1  UNL1        0.0000
     24 C           3.9886    0.0930    0.1610 C.ar    1  UNL1        0.0000
     25 C           4.7094    1.3063    0.1904 C.ar    1  UNL1        0.0000
     26 C           6.0754    1.3838    0.5480 C.ar    1  UNL1        0.0000
     27 C           6.8394    0.2584    0.9037 C.ar    1  UNL1        0.0000
     28 C           6.1687   -0.9893    0.8883 C.ar    1  UNL1        0.0000
     29 N           6.7193   -2.1748    1.1919 N.ar    1  UNL1        0.0000
     30 S           5.5175   -3.3072    1.0175 S.2     1  UNL1        0.0000
     31 N           4.2472   -2.3484    0.5533 N.ar    1  UNL1        0.0000
     32 C           4.7079   -1.0854    0.5090 C.ar    1  UNL1        0.0000
     33 H           2.0900    0.6127   -5.1762 H       1  UNL1        0.0000
     34 H           2.0667   -1.8723   -4.8381 H       1  UNL1        0.0000
     35 H           3.9866   -0.3332   -2.6936 H       1  UNL1        0.0000
     36 H           1.9720    0.3053    1.7890 H       1  UNL1        0.0000
     37 H          -0.2742    0.4144    2.5803 H       1  UNL1        0.0000
     38 H          -1.8189    0.6446    4.2389 H       1  UNL1        0.0000
     39 H          -6.2928    0.5778    3.4600 H       1  UNL1        0.0000
     40 H          -7.2557    0.2934    1.2622 H       1  UNL1        0.0000
     41 H          -7.6087   -0.0432   -1.2793 H       1  UNL1        0.0000
     42 H          -4.8763   -1.4720   -2.3520 H       1  UNL1        0.0000
     43 H          -4.8565    1.0129   -2.6831 H       1  UNL1        0.0000
     44 H          -2.0824   -0.1831   -2.0058 H       1  UNL1        0.0000
     45 H          -0.6008   -0.4244   -3.6822 H       1  UNL1        0.0000
     46 H           4.1920    2.2285   -0.0782 H       1  UNL1        0.0000
     47 H           6.5585    2.3615    0.5456 H       1  UNL1        0.0000
     48 H           7.8858    0.3331    1.1745 H       1  UNL1        0.0000
@<TRIPOS>BOND
     1     1     2    1
     2     2     3    2
     3     3     4   ar
     4     4     5   ar
     5     5     6   ar
     6     6     7   ar
     7     7     8   ar
     8     8     9   ar
     9     9    10   ar
    10    10    11   ar
    11    11    12   ar
    12    12    13   ar
    13    13    14   ar
    14    14    15    1
    15    15    16    2
    16    16    17    1
    17    17    18    1
    18    18    19   ar
    19    19    20   ar
    20    20    21   ar
    21    21    22   ar
    22    22    23    2
    23     4    24    1
    24    24    25   ar
    25    25    26   ar
    26    26    27   ar
    27    27    28   ar
    28    28    29   ar
    29    29    30   ar
    30    30    31   ar
    31    31    32   ar
    32    23     1    1
    33    32    24   ar
    34    22     3   ar
    35    32    28   ar
    36    21     6   ar
    37    19     8   ar
    38    13     9   ar
    39    18    14   ar
    40     1    33    1
    41     1    34    1
    42     2    35    1
    43     5    36    1
    44     7    37    1
    45    10    38    1
    46    12    39    1
    47    15    40    1
    48    16    41    1
    49    17    42    1
    50    17    43    1
    51    20    44    1
    52    23    45    1
    53    25    46    1
    54    26    47    1
    55    27    48    1
