@<TRIPOS>MOLECULE
*****
 40 47 0 0 0
SMALL
GASTEIGER

@<TRIPOS>ATOM
      1 C          -1.9129   -2.4343   -2.5739 C.3     1  UNL1       -0.0148
      2 C          -3.0011   -1.7137   -1.8386 C.2     1  UNL1       -0.0718
      3 C          -2.4571   -0.8542   -0.9669 C.ar    1  UNL1       -0.0094
      4 C          -3.0556    0.0408   -0.0493 C.ar    1  UNL1        0.0401
      5 C          -4.4161    0.2753    0.1953 C.ar    1  UNL1        0.1501
      6 O          -5.5782   -0.2267   -0.3154 O.2     1  UNL1       -0.4617
      7 C          -6.5665    0.4241    0.3551 C.ar    1  UNL1        0.0937
      8 C          -6.0844    1.3227    1.2741 C.ar    1  UNL1       -0.0095
      9 C          -4.6782    1.2035    1.1470 C.ar    1  UNL1        0.0585
     10 S          -3.2111    1.8493    1.8031 S.2     1  UNL1       -0.0843
     11 C          -2.2641    0.8412    0.7684 C.ar    1  UNL1        0.0339
     12 C          -0.7803    0.8096    0.7302 C.ar    1  UNL1        0.0253
     13 C           0.0753    1.6070    1.5455 C.ar    1  UNL1        0.1092
     14 N          -0.2754    2.5109    2.4775 N.ar    1  UNL1       -0.1901
     15 S           1.1051    3.1349    3.1290 S.2     1  UNL1        0.1165
     16 N           2.2452    2.3125    2.2609 N.ar    1  UNL1       -0.1901
     17 C           1.5894    1.4947    1.4177 C.ar    1  UNL1        0.1083
     18 C           2.1955    0.5977    0.4893 C.ar    1  UNL1        0.0145
     19 C           1.2910   -0.1639   -0.2880 C.ar    1  UNL1       -0.0434
     20 C          -0.1227   -0.0797   -0.1873 C.ar    1  UNL1       -0.0066
     21 C          -0.9964   -0.9244   -1.0451 C.ar    1  UNL1       -0.0133
     22 C          -0.6683   -1.8400   -1.9747 C.2     1  UNL1       -0.0719
     23 C           3.6458    0.4901    0.3659 C.ar    1  UNL1        0.0305
     24 C           4.5243    1.5780    0.2286 C.ar    1  UNL1        0.0375
     25 N           5.8933    1.5581    0.0937 N.ar    1  UNL1       -0.2604
     26 C           6.5748    0.3780    0.0981 C.ar    1  UNL1        0.0557
     27 C           5.8351   -0.8112    0.2358 C.ar    1  UNL1        0.1185
     28 N           6.3290   -2.0597    0.2602 N.ar    1  UNL1       -0.1892
     29 S           5.0310   -3.0737    0.4526 S.2     1  UNL1        0.1165
     30 N           3.7867   -1.9785    0.4926 N.ar    1  UNL1       -0.1901
     31 C           4.3334   -0.7535    0.3711 C.ar    1  UNL1        0.1105
     32 H          -1.9645   -2.2373   -3.6487 H       1  UNL1        0.0350
     33 H          -1.9603   -3.5121   -2.3928 H       1  UNL1        0.0350
     34 H          -4.0571   -1.8754   -1.9962 H       1  UNL1        0.0581
     35 H          -7.5691    0.1381    0.0658 H       1  UNL1        0.1030
     36 H          -6.6509    1.9635    1.9327 H       1  UNL1        0.0660
     37 H           1.7180   -0.8599   -1.0113 H       1  UNL1        0.0631
     38 H           0.3244   -2.1376   -2.2743 H       1  UNL1        0.0581
     39 H           4.1220    2.5928    0.2118 H       1  UNL1        0.0836
     40 H           7.6510    0.4132   -0.0044 H       1  UNL1        0.0852
@<TRIPOS>BOND
     1     1     2    1
     2     2     3    2
     3     3     4   ar
     4     4     5   ar
     5     5     6   ar
     6     6     7   ar
     7     7     8   ar
     8     8     9   ar
     9     9    10   ar
    10    10    11   ar
    11    11    12   ar
    12    12    13   ar
    13    13    14   ar
    14    14    15   ar
    15    15    16   ar
    16    16    17   ar
    17    17    18   ar
    18    18    19   ar
    19    19    20   ar
    20    20    21   ar
    21    21    22    2
    22    18    23    1
    23    23    24   ar
    24    24    25   ar
    25    25    26   ar
    26    26    27   ar
    27    27    28   ar
    28    28    29   ar
    29    29    30   ar
    30    30    31   ar
    31    22     1    1
    32    31    23   ar
    33    21     3   ar
    34    31    27   ar
    35    11     4   ar
    36    20    12   ar
    37     9     5   ar
    38    17    13   ar
    39     1    32    1
    40     1    33    1
    41     2    34    1
    42     7    35    1
    43     8    36    1
    44    19    37    1
    45    22    38    1
    46    24    39    1
    47    26    40    1
