@<TRIPOS>MOLECULE
*****
 38 43 0 0 0
SMALL
GASTEIGER

@<TRIPOS>ATOM
      1 C          -0.8746   -4.0075   -0.5006 C.3     1  UNL1       -0.0148
      2 C           0.4556   -3.3316   -0.5579 C.2     1  UNL1       -0.0719
      3 C           0.2836   -2.0120   -0.4088 C.ar    1  UNL1       -0.0120
      4 C           1.2477   -0.9886   -0.2595 C.ar    1  UNL1        0.0083
      5 C           2.6558   -0.9877   -0.3270 C.ar    1  UNL1       -0.0260
      6 C           3.0672    0.3081   -0.0677 C.ar    1  UNL1        0.0728
      7 N           1.9352    1.0654    0.1537 N.ar    1  UNL1       -0.3520
      8 C           0.8116    0.2862    0.0461 C.ar    1  UNL1        0.0554
      9 C          -0.5955    0.6991    0.1745 C.ar    1  UNL1        0.0073
     10 C          -0.9287    2.0123    0.5116 C.ar    1  UNL1       -0.0514
     11 C          -2.2625    2.4036    0.5610 C.ar    1  UNL1       -0.0533
     12 C          -3.2869    1.5133    0.2210 C.ar    1  UNL1       -0.0144
     13 C          -4.6122    1.9663    0.2229 C.ar    1  UNL1       -0.0359
     14 C          -5.6184    1.1048   -0.1678 C.ar    1  UNL1        0.0281
     15 N          -5.3932   -0.1537   -0.5738 N.ar    1  UNL1       -0.2626
     16 C          -4.1006   -0.5724   -0.5612 C.ar    1  UNL1        0.0359
     17 C          -2.9847    0.1765   -0.1409 C.ar    1  UNL1        0.0086
     18 C          -1.6229   -0.2678   -0.0894 C.ar    1  UNL1        0.0007
     19 C          -1.1498   -1.6833   -0.2894 C.ar    1  UNL1       -0.0128
     20 C          -1.8155   -2.8549   -0.2839 C.2     1  UNL1       -0.0719
     21 C           4.3640    0.9106   -0.0034 C.ar    1  UNL1        0.1243
     22 N           4.5039    2.1934    0.2673 N.ar    1  UNL1       -0.2459
     23 C           5.8463    2.5209    0.2693 C.ar    1  UNL1        0.0355
     24 C           6.7129    1.4841    0.0004 C.ar    1  UNL1       -0.0042
     25 S           5.8223    0.0443   -0.2656 S.2     1  UNL1       -0.0742
     26 H          -0.9212   -4.7111    0.3360 H       1  UNL1        0.0350
     27 H          -1.0984   -4.5303   -1.4349 H       1  UNL1        0.0350
     28 H           1.4009   -3.8453   -0.6352 H       1  UNL1        0.0581
     29 H           3.2975   -1.8326   -0.5385 H       1  UNL1        0.0646
     30 H           1.9671    2.0553    0.3566 H       1  UNL1        0.1660
     31 H          -0.1648    2.7489    0.7406 H       1  UNL1        0.0624
     32 H          -2.4917    3.4320    0.8350 H       1  UNL1        0.0624
     33 H          -4.8655    2.9811    0.5127 H       1  UNL1        0.0639
     34 H          -6.6571    1.4211   -0.1791 H       1  UNL1        0.0830
     35 H          -3.9964   -1.5693   -0.9691 H       1  UNL1        0.0836
     36 H          -2.8648   -3.0237   -0.1143 H       1  UNL1        0.0581
     37 H           6.1421    3.5424    0.4752 H       1  UNL1        0.0835
     38 H           7.7917    1.5023   -0.0511 H       1  UNL1        0.0709
@<TRIPOS>BOND
     1     1     2    1
     2     2     3    2
     3     3     4   ar
     4     4     5   ar
     5     5     6   ar
     6     6     7   ar
     7     7     8   ar
     8     8     9   ar
     9     9    10   ar
    10    10    11   ar
    11    11    12   ar
    12    12    13   ar
    13    13    14   ar
    14    14    15   ar
    15    15    16   ar
    16    16    17   ar
    17    17    18   ar
    18    18    19   ar
    19    19    20    2
    20     6    21    1
    21    21    22   ar
    22    22    23   ar
    23    23    24   ar
    24    24    25   ar
    25    20     1    1
    26    25    21   ar
    27    19     3   ar
    28     8     4   ar
    29    18     9   ar
    30    17    12   ar
    31     1    26    1
    32     1    27    1
    33     2    28    1
    34     5    29    1
    35     7    30    1
    36    10    31    1
    37    11    32    1
    38    13    33    1
    39    14    34    1
    40    16    35    1
    41    20    36    1
    42    23    37    1
    43    24    38    1
