@<TRIPOS>MOLECULE
*****
 44 50 0 0 0
SMALL
GASTEIGER

@<TRIPOS>ATOM
      1 C          -1.1405    3.6678    0.0893 C.3     1  UNL1       -0.0148
      2 C           0.2686    3.2415   -0.1805 C.2     1  UNL1       -0.0719
      3 C           0.3389    1.9053   -0.1238 C.ar    1  UNL1       -0.0120
      4 C           1.4690    1.0526   -0.1115 C.ar    1  UNL1        0.0084
      5 C           2.8428    1.2767   -0.3252 C.ar    1  UNL1       -0.0266
      6 C           3.4853    0.0630   -0.1411 C.ar    1  UNL1        0.0639
      7 N           2.5187   -0.8685    0.1827 N.ar    1  UNL1       -0.3525
      8 C           1.2808   -0.2775    0.2133 C.ar    1  UNL1        0.0568
      9 C          -0.0236   -0.9048    0.4733 C.ar    1  UNL1        0.0253
     10 C          -0.1598   -2.2202    0.8798 C.ar    1  UNL1        0.0380
     11 N          -1.3427   -2.8430    1.0800 N.ar    1  UNL1       -0.2543
     12 C          -2.4731   -2.1939    0.7799 C.ar    1  UNL1        0.0722
     13 C          -3.6649   -2.9544    0.9514 C.ar    1  UNL1       -0.0351
     14 C          -4.9778   -2.5462    0.6296 C.ar    1  UNL1       -0.0506
     15 C          -4.9422   -1.2917    0.0575 C.ar    1  UNL1        0.0001
     16 C          -6.0244   -0.6537   -0.4895 C.ar    1  UNL1        0.0094
     17 N          -5.5505    0.5054   -1.0572 N.ar    1  UNL1       -0.3659
     18 C          -4.1845    0.5924   -0.8824 C.ar    1  UNL1        0.0101
     19 C          -3.7820   -0.4759   -0.1147 C.ar    1  UNL1        0.0092
     20 C          -2.4578   -0.8355    0.2993 C.ar    1  UNL1        0.0178
     21 C          -1.2054   -0.1423    0.2767 C.ar    1  UNL1        0.0028
     22 C          -0.9963    1.3292    0.1135 C.ar    1  UNL1       -0.0127
     23 C          -1.8380    2.3579    0.3220 C.2     1  UNL1       -0.0719
     24 C           4.8729   -0.2740   -0.2412 C.ar    1  UNL1        0.0629
     25 C           5.5219   -1.4783   -0.0379 C.ar    1  UNL1       -0.0350
     26 C           6.9056   -1.2738   -0.2673 C.ar    1  UNL1       -0.0438
     27 C           7.0713    0.0487   -0.6054 C.ar    1  UNL1        0.0022
     28 N           5.8371    0.6444   -0.5868 N.ar    1  UNL1       -0.3595
     29 H          -1.5690    4.1995   -0.7651 H       1  UNL1        0.0350
     30 H          -1.1925    4.2998    0.9809 H       1  UNL1        0.0350
     31 H           1.1009    3.9176   -0.2948 H       1  UNL1        0.0581
     32 H           3.3092    2.2173   -0.5818 H       1  UNL1        0.0645
     33 H           2.7101   -1.8440    0.3558 H       1  UNL1        0.1660
     34 H           0.7027   -2.8473    1.0809 H       1  UNL1        0.0836
     35 H          -3.5462   -3.9634    1.3529 H       1  UNL1        0.0639
     36 H          -5.8481   -3.1726    0.7564 H       1  UNL1        0.0625
     37 H          -7.0688   -0.9239   -0.5680 H       1  UNL1        0.0813
     38 H          -6.1100    1.1673   -1.5795 H       1  UNL1        0.1648
     39 H          -3.6435    1.3991   -1.3549 H       1  UNL1        0.0813
     40 H          -2.8631    2.2934    0.6496 H       1  UNL1        0.0581
     41 H           5.0619   -2.4147    0.2468 H       1  UNL1        0.0639
     42 H           7.6932   -2.0125   -0.1932 H       1  UNL1        0.0633
     43 H           7.9563    0.6172   -0.8572 H       1  UNL1        0.0807
     44 H           5.6573    1.6160   -0.7971 H       1  UNL1        0.1654
@<TRIPOS>BOND
     1     1     2    1
     2     2     3    2
     3     3     4   ar
     4     4     5   ar
     5     5     6   ar
     6     6     7   ar
     7     7     8   ar
     8     8     9   ar
     9     9    10   ar
    10    10    11   ar
    11    11    12   ar
    12    12    13   ar
    13    13    14   ar
    14    14    15   ar
    15    15    16   ar
    16    16    17   ar
    17    17    18   ar
    18    18    19   ar
    19    19    20   ar
    20    20    21   ar
    21    21    22   ar
    22    22    23    2
    23     6    24    1
    24    24    25   ar
    25    25    26   ar
    26    26    27   ar
    27    27    28   ar
    28    23     1    1
    29    28    24   ar
    30    22     3   ar
    31     8     4   ar
    32    21     9   ar
    33    20    12   ar
    34    19    15   ar
    35     1    29    1
    36     1    30    1
    37     2    31    1
    38     5    32    1
    39     7    33    1
    40    10    34    1
    41    13    35    1
    42    14    36    1
    43    16    37    1
    44    17    38    1
    45    18    39    1
    46    23    40    1
    47    25    41    1
    48    26    42    1
    49    27    43    1
    50    28    44    1
