@<TRIPOS>MOLECULE
*****
 41 47 0 0 0
SMALL
GASTEIGER

@<TRIPOS>ATOM
      1 C           2.7021    0.1901    3.4049 C.3     1  UNL1       -0.0148
      2 C           1.2915    0.2064    2.8916 C.2     1  UNL1       -0.0719
      3 C           1.3055    0.0895    1.5577 C.ar    1  UNL1       -0.0119
      4 C           0.2462    0.0528    0.6115 C.ar    1  UNL1        0.0083
      5 C          -1.1545    0.1251    0.7483 C.ar    1  UNL1       -0.0275
      6 C          -1.7007    0.0378   -0.5227 C.ar    1  UNL1        0.0547
      7 N          -0.6430   -0.0847   -1.4072 N.ar    1  UNL1       -0.3532
      8 C           0.5502   -0.0776   -0.7345 C.ar    1  UNL1        0.0569
      9 C           1.9106   -0.1842   -1.2839 C.ar    1  UNL1        0.0282
     10 C           2.2039   -0.3148   -2.6385 C.ar    1  UNL1        0.0382
     11 N           3.4453   -0.4155   -3.1774 N.ar    1  UNL1       -0.2511
     12 C           4.4545   -0.3802   -2.2705 C.ar    1  UNL1        0.1095
     13 C           5.8509   -0.4580   -2.4690 C.ar    1  UNL1        0.0022
     14 C           6.4205   -0.3738   -1.2189 C.ar    1  UNL1        0.0947
     15 O           5.4644   -0.2488   -0.2592 O.2     1  UNL1       -0.4607
     16 C           4.2576   -0.2522   -0.8982 C.ar    1  UNL1        0.1612
     17 C           2.9829   -0.1497   -0.3557 C.ar    1  UNL1        0.0373
     18 C           2.6929   -0.0119    1.0817 C.ar    1  UNL1       -0.0098
     19 C           3.5110    0.0454    2.1459 C.2     1  UNL1       -0.0718
     20 C          -3.0717    0.0581   -0.9638 C.ar    1  UNL1        0.0429
     21 S          -3.4740   -0.0714   -2.6557 S.2     1  UNL1       -0.0943
     22 C          -5.1704    0.0253   -2.3747 C.ar    1  UNL1       -0.0196
     23 C          -5.4217    0.1520   -1.0383 C.ar    1  UNL1       -0.0288
     24 C          -6.6246    0.2787   -0.1677 C.3     1  UNL1       -0.0081
     25 C          -5.9641    0.3697    1.2066 C.2     1  UNL1       -0.0791
     26 C          -4.6166    0.3039    1.1103 C.2     1  UNL1       -0.0568
     27 C          -4.2385    0.1695   -0.2536 C.ar    1  UNL1       -0.0057
     28 H           2.9437    1.1235    3.9218 H       1  UNL1        0.0350
     29 H           2.8667   -0.6573    4.0769 H       1  UNL1        0.0350
     30 H           0.4148    0.2984    3.5128 H       1  UNL1        0.0581
     31 H          -1.6986    0.2293    1.6748 H       1  UNL1        0.0645
     32 H          -0.7629   -0.1667   -2.4069 H       1  UNL1        0.1659
     33 H           1.4105   -0.3451   -3.3805 H       1  UNL1        0.0836
     34 H           6.3703   -0.5624   -3.4095 H       1  UNL1        0.0670
     35 H           7.4403   -0.3868   -0.8596 H       1  UNL1        0.1030
     36 H           4.5890   -0.0027    2.1292 H       1  UNL1        0.0581
     37 H          -5.8698   -0.0162   -3.1978 H       1  UNL1        0.0696
     38 H          -7.1928    1.1867   -0.3880 H       1  UNL1        0.0356
     39 H          -7.2690   -0.6023   -0.2329 H       1  UNL1        0.0356
     40 H          -6.5172    0.4731    2.1282 H       1  UNL1        0.0575
     41 H          -3.9353    0.3473    1.9461 H       1  UNL1        0.0621
@<TRIPOS>BOND
     1     1     2    1
     2     2     3    2
     3     3     4   ar
     4     4     5   ar
     5     5     6   ar
     6     6     7   ar
     7     7     8   ar
     8     8     9   ar
     9     9    10   ar
    10    10    11   ar
    11    11    12   ar
    12    12    13   ar
    13    13    14   ar
    14    14    15   ar
    15    15    16   ar
    16    16    17   ar
    17    17    18   ar
    18    18    19    2
    19     6    20    1
    20    20    21   ar
    21    21    22   ar
    22    22    23   ar
    23    23    24    1
    24    24    25    1
    25    25    26    2
    26    26    27    1
    27    19     1    1
    28    27    20   ar
    29    18     3   ar
    30    27    23   ar
    31     8     4   ar
    32    17     9   ar
    33    16    12   ar
    34     1    28    1
    35     1    29    1
    36     2    30    1
    37     5    31    1
    38     7    32    1
    39    10    33    1
    40    13    34    1
    41    14    35    1
    42    19    36    1
    43    22    37    1
    44    24    38    1
    45    24    39    1
    46    25    40    1
    47    26    41    1
