@<TRIPOS>MOLECULE
*****
 35 39 0 0 0
SMALL
GASTEIGER

@<TRIPOS>ATOM
      1 C          -3.3287    3.0241   -0.3595 C.3     1  UNL1       -0.0148
      2 C          -1.8412    2.8817   -0.2124 C.2     1  UNL1       -0.0719
      3 C          -1.5235    1.5820   -0.1722 C.ar    1  UNL1       -0.0119
      4 C          -0.2705    0.9266   -0.0445 C.ar    1  UNL1        0.0098
      5 C           1.0565    1.3807    0.0827 C.ar    1  UNL1       -0.0283
      6 C           1.8707    0.2580    0.1706 C.ar    1  UNL1        0.0438
      7 N           1.0500   -0.8506    0.0976 N.ar    1  UNL1       -0.3527
      8 C          -0.2520   -0.4552   -0.0331 C.ar    1  UNL1        0.0738
      9 C          -1.4225   -1.3185   -0.1421 C.ar    1  UNL1        0.0953
     10 N          -1.1931   -2.6519   -0.1103 N.ar    1  UNL1       -0.2529
     11 C          -2.2935   -3.4286   -0.2130 C.ar    1  UNL1        0.0284
     12 C          -3.5892   -2.9383   -0.3436 C.ar    1  UNL1       -0.0430
     13 C          -3.7912   -1.5572   -0.3731 C.ar    1  UNL1       -0.0505
     14 C          -2.6919   -0.7107   -0.2710 C.ar    1  UNL1        0.0098
     15 C          -2.7454    0.7684   -0.2866 C.ar    1  UNL1       -0.0119
     16 C          -3.7994    1.5948   -0.3958 C.2     1  UNL1       -0.0719
     17 C           3.2661    0.0510    0.3092 C.2     1  UNL1       -0.0203
     18 C           4.1294    1.0814    0.3868 C.2     1  UNL1       -0.0566
     19 C           5.4790    0.5962    0.5229 C.2     1  UNL1       -0.0650
     20 C           5.4713   -0.7425    0.5317 C.2     1  UNL1       -0.0796
     21 C           4.0613   -1.2369    0.3965 C.3     1  UNL1       -0.0072
     22 H          -3.5843    3.5447   -1.2871 H       1  UNL1        0.0350
     23 H          -3.7592    3.5571    0.4934 H       1  UNL1        0.0350
     24 H          -1.1482    3.7059   -0.1501 H       1  UNL1        0.0581
     25 H           1.3912    2.4086    0.1085 H       1  UNL1        0.0645
     26 H           1.3359   -1.8198    0.1325 H       1  UNL1        0.1660
     27 H          -2.1064   -4.4988   -0.1871 H       1  UNL1        0.0830
     28 H          -4.4279   -3.6222   -0.4213 H       1  UNL1        0.0633
     29 H          -4.7968   -1.1625   -0.4746 H       1  UNL1        0.0625
     30 H          -4.8344    1.3080   -0.4955 H       1  UNL1        0.0581
     31 H           3.8876    2.1332    0.3556 H       1  UNL1        0.0621
     32 H           6.3468    1.2329    0.6038 H       1  UNL1        0.0615
     33 H           6.3391   -1.3778    0.6215 H       1  UNL1        0.0575
     34 H           3.7696   -1.8256    1.2721 H       1  UNL1        0.0356
     35 H           3.9449   -1.8382   -0.5107 H       1  UNL1        0.0356
@<TRIPOS>BOND
     1     1     2    1
     2     2     3    2
     3     3     4   ar
     4     4     5   ar
     5     5     6   ar
     6     6     7   ar
     7     7     8   ar
     8     8     9   ar
     9     9    10   ar
    10    10    11   ar
    11    11    12   ar
    12    12    13   ar
    13    13    14   ar
    14    14    15   ar
    15    15    16    2
    16     6    17    1
    17    17    18    2
    18    18    19    1
    19    19    20    2
    20    20    21    1
    21    16     1    1
    22    21    17    1
    23    15     3   ar
    24     8     4   ar
    25    14     9   ar
    26     1    22    1
    27     1    23    1
    28     2    24    1
    29     5    25    1
    30     7    26    1
    31    11    27    1
    32    12    28    1
    33    13    29    1
    34    16    30    1
    35    18    31    1
    36    19    32    1
    37    20    33    1
    38    21    34    1
    39    21    35    1
