@<TRIPOS>MOLECULE
*****
 47 53 0 0 0
SMALL
GASTEIGER

@<TRIPOS>ATOM
      1 C          -1.9902   -3.8821    0.6043 C.3     1  UNL1        0.0000
      2 C          -0.6876   -3.1899    0.3666 C.2     1  UNL1        0.0000
      3 C          -0.8782   -1.8594    0.3150 C.ar    1  UNL1        0.0000
      4 C           0.0952   -0.7944    0.0124 C.ar    1  UNL1        0.0000
      5 C           1.4496   -1.1077   -0.1272 C.ar    1  UNL1        0.0000
      6 C           2.3859   -0.1376   -0.4839 C.ar    1  UNL1        0.0000
      7 C           3.7787   -0.5824   -0.5743 C.2     1  UNL1        0.0000
      8 C           4.3929   -1.1113   -1.6523 C.2     1  UNL1        0.0000
      9 C           5.7846   -1.4816   -1.4473 C.2     1  UNL1        0.0000
     10 C           6.2643   -1.2528   -0.2108 C.2     1  UNL1        0.0000
     11 SI          4.9483   -0.4963    0.9106 Si      1  UNL1        0.0000
     12 C           1.9630    1.1757   -0.7896 C.ar    1  UNL1        0.0000
     13 C           2.8955    2.1462   -1.2397 C.ar    1  UNL1        0.0000
     14 C           2.5209    3.4402   -1.5819 C.ar    1  UNL1        0.0000
     15 C           1.1922    3.7941   -1.4961 C.ar    1  UNL1        0.0000
     16 C           0.2541    2.8570   -1.0520 C.ar    1  UNL1        0.0000
     17 C           0.5831    1.5286   -0.6557 C.ar    1  UNL1        0.0000
     18 C          -0.3683    0.5431   -0.1700 C.ar    1  UNL1        0.0000
     19 C          -1.8177    0.8462    0.1862 C.ar    1  UNL1        0.0000
     20 N          -2.1697    2.1545    0.2469 N.ar    1  UNL1        0.0000
     21 C          -3.4206    2.5343    0.5953 C.ar    1  UNL1        0.0000
     22 C          -4.3811    1.5866    0.9395 C.ar    1  UNL1        0.0000
     23 C          -5.7385    1.6765    1.3542 C.ar    1  UNL1        0.0000
     24 C          -6.1811    0.4001    1.5971 C.ar    1  UNL1        0.0000
     25 N          -5.1409   -0.4547    1.3470 N.ar    1  UNL1        0.0000
     26 C          -4.0281    0.2339    0.9132 C.ar    1  UNL1        0.0000
     27 C          -2.7375   -0.1751    0.5273 C.ar    1  UNL1        0.0000
     28 C          -2.2910   -1.5680    0.5250 C.ar    1  UNL1        0.0000
     29 C          -2.9492   -2.7319    0.6726 C.2     1  UNL1        0.0000
     30 H          -2.2381   -4.5524   -0.2239 H       1  UNL1        0.0000
     31 H          -1.9772   -4.4435    1.5430 H       1  UNL1        0.0000
     32 H           0.2393   -3.7218    0.2198 H       1  UNL1        0.0000
     33 H           1.7963   -2.1239    0.0449 H       1  UNL1        0.0000
     34 H           3.9129   -1.2614   -2.6119 H       1  UNL1        0.0000
     35 H           6.3696   -1.9102   -2.2518 H       1  UNL1        0.0000
     36 H           7.2611   -1.4529    0.1487 H       1  UNL1        0.0000
     37 H           5.3022    0.8916    1.2995 H       1  UNL1        0.0000
     38 H           4.5661   -1.4244    2.0047 H       1  UNL1        0.0000
     39 H           3.9491    1.8952   -1.3469 H       1  UNL1        0.0000
     40 H           3.2626    4.1540   -1.9272 H       1  UNL1        0.0000
     41 H           0.8678    4.7919   -1.7780 H       1  UNL1        0.0000
     42 H          -0.7745    3.2017   -1.0530 H       1  UNL1        0.0000
     43 H          -3.6142    3.6008    0.6019 H       1  UNL1        0.0000
     44 H          -6.3204    2.5812    1.4739 H       1  UNL1        0.0000
     45 H          -7.1379    0.0263    1.9367 H       1  UNL1        0.0000
     46 H          -5.1902   -1.4517    1.4813 H       1  UNL1        0.0000
     47 H          -4.0030   -2.8926    0.8055 H       1  UNL1        0.0000
@<TRIPOS>BOND
     1     1     2    1
     2     2     3    2
     3     3     4   ar
     4     4     5   ar
     5     5     6   ar
     6     6     7    1
     7     7     8    2
     8     8     9    1
     9     9    10    2
    10    10    11    1
    11     6    12   ar
    12    12    13   ar
    13    13    14   ar
    14    14    15   ar
    15    15    16   ar
    16    16    17   ar
    17    17    18   ar
    18    18    19   ar
    19    19    20   ar
    20    20    21   ar
    21    21    22   ar
    22    22    23   ar
    23    23    24   ar
    24    24    25   ar
    25    25    26   ar
    26    26    27   ar
    27    27    28   ar
    28    28    29    2
    29    29     1    1
    30    28     3   ar
    31    18     4   ar
    32    27    19   ar
    33    11     7    1
    34    17    12   ar
    35    26    22   ar
    36     1    30    1
    37     1    31    1
    38     2    32    1
    39     5    33    1
    40     8    34    1
    41     9    35    1
    42    10    36    1
    43    11    37    1
    44    11    38    1
    45    13    39    1
    46    14    40    1
    47    15    41    1
    48    16    42    1
    49    21    43    1
    50    23    44    1
    51    24    45    1
    52    25    46    1
    53    29    47    1
