@<TRIPOS>MOLECULE
*****
 46 53 0 0 0
SMALL
GASTEIGER

@<TRIPOS>ATOM
      1 C          -0.7236   -2.7217    2.8173 C.3     1  UNL1        0.0000
      2 C           0.4781   -2.0412    2.2553 C.2     1  UNL1        0.0000
      3 C           0.1101   -1.1912    1.2802 C.ar    1  UNL1        0.0000
      4 C           0.9754   -0.3415    0.4415 C.ar    1  UNL1        0.0000
      5 C           2.3919   -0.4744    0.5086 C.ar    1  UNL1        0.0000
      6 C           3.2831    0.1638   -0.3706 C.ar    1  UNL1        0.0000
      7 C           4.7320    0.0136   -0.2757 C.ar    1  UNL1        0.0000
      8 C           5.7525    0.9285   -0.4812 C.ar    1  UNL1        0.0000
      9 C           6.9885    0.2781   -0.2528 C.ar    1  UNL1        0.0000
     10 C           6.7049   -1.0249    0.0790 C.ar    1  UNL1        0.0000
     11 N           5.3439   -1.1779    0.0558 N.ar    1  UNL1        0.0000
     12 C           2.6789    0.9242   -1.4073 C.ar    1  UNL1        0.0000
     13 N           3.3125    1.5510   -2.4157 N.ar    1  UNL1        0.0000
     14 S           2.1560    2.1933   -3.3988 S.2     1  UNL1        0.0000
     15 N           0.7931    1.7427   -2.5879 N.ar    1  UNL1        0.0000
     16 C           1.1632    1.0824   -1.4757 C.ar    1  UNL1        0.0000
     17 C           0.3010    0.5219   -0.4756 C.ar    1  UNL1        0.0000
     18 C          -1.1745    0.6699   -0.4542 C.ar    1  UNL1        0.0000
     19 C          -1.9221    1.7480   -0.9817 C.ar    1  UNL1        0.0000
     20 C          -1.5058    2.9936   -1.3889 C.ar    1  UNL1        0.0000
     21 O          -2.5663    3.7433   -1.8158 O.2     1  UNL1        0.0000
     22 C          -3.6902    2.9910   -1.6452 C.ar    1  UNL1        0.0000
     23 C          -3.3480    1.7850   -1.0958 C.ar    1  UNL1        0.0000
     24 C          -4.1914    0.7679   -0.6943 C.ar    1  UNL1        0.0000
     25 C          -5.6410    0.7069   -0.8380 C.2     1  UNL1        0.0000
     26 C          -6.1603   -0.4159   -0.3156 C.2     1  UNL1        0.0000
     27 SI         -4.8610   -1.5314    0.4453 Si      1  UNL1        0.0000
     28 C          -3.4906   -0.2890   -0.0223 C.ar    1  UNL1        0.0000
     29 C          -2.0557   -0.3112    0.1769 C.ar    1  UNL1        0.0000
     30 C          -1.3490   -1.2365    1.1111 C.ar    1  UNL1        0.0000
     31 C          -1.8298   -2.1114    2.0147 C.2     1  UNL1        0.0000
     32 H          -0.6762   -3.8041    2.6679 H       1  UNL1        0.0000
     33 H          -0.8408   -2.5006    3.8822 H       1  UNL1        0.0000
     34 H           1.4754   -2.2386    2.6142 H       1  UNL1        0.0000
     35 H           2.8219   -1.1094    1.2808 H       1  UNL1        0.0000
     36 H           5.6189    1.9649   -0.7665 H       1  UNL1        0.0000
     37 H           7.9758    0.7146   -0.3299 H       1  UNL1        0.0000
     38 H           7.3526   -1.8570    0.3198 H       1  UNL1        0.0000
     39 H           4.8598   -2.0475    0.2324 H       1  UNL1        0.0000
     40 H          -0.5564    3.5064   -1.4335 H       1  UNL1        0.0000
     41 H          -4.6171    3.4689   -1.9279 H       1  UNL1        0.0000
     42 H          -6.2161    1.4838   -1.3218 H       1  UNL1        0.0000
     43 H          -7.2038   -0.6911   -0.3036 H       1  UNL1        0.0000
     44 H          -5.0613   -1.6527    1.9117 H       1  UNL1        0.0000
     45 H          -4.7373   -2.8193   -0.2815 H       1  UNL1        0.0000
     46 H          -2.8510   -2.3554    2.2389 H       1  UNL1        0.0000
@<TRIPOS>BOND
     1     1     2    1
     2     2     3    2
     3     3     4   ar
     4     4     5   ar
     5     5     6   ar
     6     6     7    1
     7     7     8   ar
     8     8     9   ar
     9     9    10   ar
    10    10    11   ar
    11     6    12   ar
    12    12    13   ar
    13    13    14   ar
    14    14    15   ar
    15    15    16   ar
    16    16    17   ar
    17    17    18   ar
    18    18    19   ar
    19    19    20   ar
    20    20    21   ar
    21    21    22   ar
    22    22    23   ar
    23    23    24   ar
    24    24    25    1
    25    25    26    2
    26    26    27    1
    27    27    28    1
    28    28    29   ar
    29    29    30   ar
    30    30    31    2
    31    31     1    1
    32    30     3   ar
    33    17     4   ar
    34    29    18   ar
    35    11     7   ar
    36    16    12   ar
    37    23    19   ar
    38    28    24   ar
    39     1    32    1
    40     1    33    1
    41     2    34    1
    42     5    35    1
    43     8    36    1
    44     9    37    1
    45    10    38    1
    46    11    39    1
    47    20    40    1
    48    22    41    1
    49    25    42    1
    50    26    43    1
    51    27    44    1
    52    27    45    1
    53    31    46    1
