@<TRIPOS>MOLECULE
*****
 47 54 0 0 0
SMALL
GASTEIGER

@<TRIPOS>ATOM
      1 C           2.4765   -3.1598   -1.8188 C.3     1  UNL1       -0.0148
      2 C           1.1713   -2.5917   -1.3465 C.2     1  UNL1       -0.0719
      3 C           1.3839   -1.4454   -0.6757 C.ar    1  UNL1       -0.0132
      4 C           0.4157   -0.5297   -0.0276 C.ar    1  UNL1       -0.0072
      5 C          -0.9881   -0.8340   -0.0725 C.ar    1  UNL1       -0.0450
      6 C          -2.0024   -0.0365    0.5019 C.ar    1  UNL1       -0.0084
      7 C          -3.4053   -0.3750    0.4320 C.ar    1  UNL1       -0.0066
      8 C          -4.0326   -1.4024    1.1863 C.ar    1  UNL1       -0.0533
      9 C          -5.4330   -1.7382    1.1006 C.ar    1  UNL1       -0.0605
     10 C          -6.3580   -1.0904    0.2488 C.ar    1  UNL1       -0.0510
     11 C          -5.7208   -0.0984   -0.4829 C.ar    1  UNL1        0.0204
     12 C          -6.2854    0.7326   -1.4126 C.ar    1  UNL1        0.0994
     13 O          -5.3264    1.5684   -1.9185 O.2     1  UNL1       -0.4698
     14 C          -4.1429    1.2621   -1.3013 C.ar    1  UNL1        0.1000
     15 C          -4.3388    0.2430   -0.4045 C.ar    1  UNL1        0.0276
     16 C          -1.4756    1.0965    1.1419 C.ar    1  UNL1       -0.0025
     17 C          -2.2644    2.0143    1.7999 C.ar    1  UNL1       -0.0160
     18 S          -1.3388    3.2828    2.4757 S.2     1  UNL1       -0.1038
     19 C           0.1284    2.6022    1.9026 C.ar    1  UNL1       -0.0159
     20 C          -0.0571    1.4289    1.2041 C.ar    1  UNL1       -0.0005
     21 C           0.9697    0.6394    0.6219 C.ar    1  UNL1        0.0170
     22 C           2.4353    0.9091    0.6379 C.ar    1  UNL1        0.0834
     23 N           2.8684    2.0327    1.2694 N.ar    1  UNL1       -0.2535
     24 C           4.1892    2.3428    1.3234 C.ar    1  UNL1        0.0390
     25 C           5.1297    1.5078    0.7280 C.ar    1  UNL1        0.0388
     26 C           6.5429    1.5074    0.5863 C.ar    1  UNL1       -0.0146
     27 C           6.8586    0.3750   -0.1255 C.ar    1  UNL1        0.0932
     28 O           5.7359   -0.3225   -0.4322 O.2     1  UNL1       -0.4622
     29 C           4.6718    0.3629    0.0859 C.ar    1  UNL1        0.1460
     30 C           3.3253    0.0178    0.0130 C.ar    1  UNL1        0.0512
     31 C           2.8181   -1.1743   -0.6543 C.ar    1  UNL1       -0.0085
     32 C           3.4622   -2.1544   -1.3094 C.2     1  UNL1       -0.0718
     33 H           2.5066   -3.2253   -2.9103 H       1  UNL1        0.0350
     34 H           2.6578   -4.1469   -1.3838 H       1  UNL1        0.0350
     35 H           0.2233   -3.0675   -1.5410 H       1  UNL1        0.0581
     36 H          -1.3121   -1.7371   -0.5900 H       1  UNL1        0.0630
     37 H          -3.4220   -1.9772    1.8854 H       1  UNL1        0.0624
     38 H          -5.7983   -2.5460    1.7368 H       1  UNL1        0.0618
     39 H          -7.4049   -1.3511    0.1918 H       1  UNL1        0.0625
     40 H          -7.2784    0.8650   -1.8178 H       1  UNL1        0.1035
     41 H          -3.2914    1.8520   -1.6112 H       1  UNL1        0.1036
     42 H          -3.3386    2.0217    1.9270 H       1  UNL1        0.0700
     43 H           1.0396    3.1319    2.1333 H       1  UNL1        0.0700
     44 H           4.4483    3.2565    1.8461 H       1  UNL1        0.0837
     45 H           7.2434    2.2419    0.9573 H       1  UNL1        0.0655
     46 H           7.7861   -0.0557   -0.4772 H       1  UNL1        0.1030
     47 H           4.5271   -2.2352   -1.4645 H       1  UNL1        0.0581
@<TRIPOS>BOND
     1     1     2    1
     2     2     3    2
     3     3     4   ar
     4     4     5   ar
     5     5     6   ar
     6     6     7    1
     7     7     8   ar
     8     8     9   ar
     9     9    10   ar
    10    10    11   ar
    11    11    12   ar
    12    12    13   ar
    13    13    14   ar
    14    14    15   ar
    15     6    16   ar
    16    16    17   ar
    17    17    18   ar
    18    18    19   ar
    19    19    20   ar
    20    20    21   ar
    21    21    22   ar
    22    22    23   ar
    23    23    24   ar
    24    24    25   ar
    25    25    26   ar
    26    26    27   ar
    27    27    28   ar
    28    28    29   ar
    29    29    30   ar
    30    30    31   ar
    31    31    32    2
    32    32     1    1
    33    31     3   ar
    34    21     4   ar
    35    30    22   ar
    36    15     7   ar
    37    20    16   ar
    38    29    25   ar
    39    15    11   ar
    40     1    33    1
    41     1    34    1
    42     2    35    1
    43     5    36    1
    44     8    37    1
    45     9    38    1
    46    10    39    1
    47    12    40    1
    48    14    41    1
    49    17    42    1
    50    19    43    1
    51    24    44    1
    52    26    45    1
    53    27    46    1
    54    32    47    1
