@<TRIPOS>MOLECULE
*****
 48 55 0 0 0
SMALL
GASTEIGER

@<TRIPOS>ATOM
      1 C          -0.6735   -4.4811    1.2479 C.3     1  UNL1       -0.0148
      2 C          -1.6682   -3.4296    0.8615 C.2     1  UNL1       -0.0719
      3 C          -1.0327   -2.2784    0.5787 C.ar    1  UNL1       -0.0135
      4 C          -1.5891   -0.9591    0.2157 C.ar    1  UNL1       -0.0086
      5 C          -3.0197   -0.7838    0.1302 C.ar    1  UNL1       -0.0445
      6 C          -3.6510    0.4570   -0.0841 C.ar    1  UNL1       -0.0001
      7 C          -5.0835    0.6376   -0.1408 C.ar    1  UNL1        0.0394
      8 C          -6.0250    0.5582    0.8669 C.ar    1  UNL1        0.0425
      9 N          -7.3384    0.7617    0.4842 N.ar    1  UNL1       -0.2551
     10 C          -7.3759    0.9853   -0.8109 C.ar    1  UNL1        0.0652
     11 S          -5.8699    0.9633   -1.6308 S.2     1  UNL1       -0.0754
     12 C          -2.7247    1.4986   -0.1339 C.ar    1  UNL1        0.0083
     13 C          -3.0123    2.8408   -0.2046 C.ar    1  UNL1        0.0100
     14 N          -1.8180    3.5139   -0.1413 N.ar    1  UNL1       -0.3659
     15 C          -0.7768    2.6186   -0.0156 C.ar    1  UNL1        0.0100
     16 C          -1.2935    1.3424   -0.0656 C.ar    1  UNL1        0.0083
     17 C          -0.6205    0.1031    0.0412 C.ar    1  UNL1       -0.0004
     18 C           0.8498   -0.1481    0.0269 C.ar    1  UNL1       -0.0083
     19 C           1.7827    0.7792   -0.4636 C.ar    1  UNL1       -0.0451
     20 C           3.1808    0.5354   -0.4234 C.ar    1  UNL1       -0.0091
     21 C           4.2217    1.4080   -0.8550 C.ar    1  UNL1       -0.0032
     22 C           4.0249    2.6588   -1.3940 C.ar    1  UNL1       -0.0160
     23 S           5.5125    3.4256   -1.7934 S.2     1  UNL1       -0.1039
     24 C           6.4351    2.0845   -1.2449 C.ar    1  UNL1       -0.0166
     25 C           5.6234    1.0834   -0.7717 C.ar    1  UNL1       -0.0103
     26 C           6.1340   -0.1092   -0.2699 C.ar    1  UNL1       -0.0529
     27 C           5.1043   -0.9813    0.1495 C.ar    1  UNL1       -0.0534
     28 C           3.6939   -0.6925    0.0827 C.ar    1  UNL1       -0.0167
     29 C           2.7580   -1.6462    0.4960 C.ar    1  UNL1       -0.0457
     30 C           1.3678   -1.4047    0.4475 C.ar    1  UNL1       -0.0093
     31 C           0.4024   -2.4769    0.7466 C.ar    1  UNL1       -0.0135
     32 C           0.6258   -3.7442    1.1376 C.2     1  UNL1       -0.0719
     33 H          -0.7071   -5.3291    0.5578 H       1  UNL1        0.0350
     34 H          -0.8441   -4.8297    2.2706 H       1  UNL1        0.0350
     35 H          -2.7317   -3.6070    0.8495 H       1  UNL1        0.0581
     36 H          -3.6638   -1.6538    0.2488 H       1  UNL1        0.0630
     37 H          -5.8051    0.3556    1.9083 H       1  UNL1        0.0841
     38 H          -8.3025    1.1714   -1.3379 H       1  UNL1        0.0907
     39 H          -3.9463    3.3837   -0.2635 H       1  UNL1        0.0813
     40 H          -1.7193    4.5212   -0.1368 H       1  UNL1        0.1648
     41 H           0.2197    3.0071    0.1297 H       1  UNL1        0.0813
     42 H           1.4448    1.6965   -0.9269 H       1  UNL1        0.0630
     43 H           3.1002    3.1834   -1.5853 H       1  UNL1        0.0700
     44 H           7.5145    2.1132   -1.3032 H       1  UNL1        0.0699
     45 H           7.1826   -0.3661   -0.2027 H       1  UNL1        0.0624
     46 H           5.4137   -1.9489    0.5502 H       1  UNL1        0.0624
     47 H           3.1193   -2.6116    0.8418 H       1  UNL1        0.0630
     48 H           1.5809   -4.2061    1.3302 H       1  UNL1        0.0581
@<TRIPOS>BOND
     1     1     2    1
     2     2     3    2
     3     3     4   ar
     4     4     5   ar
     5     5     6   ar
     6     6     7    1
     7     7     8   ar
     8     8     9   ar
     9     9    10   ar
    10    10    11   ar
    11     6    12   ar
    12    12    13   ar
    13    13    14   ar
    14    14    15   ar
    15    15    16   ar
    16    16    17   ar
    17    17    18   ar
    18    18    19   ar
    19    19    20   ar
    20    20    21   ar
    21    21    22   ar
    22    22    23   ar
    23    23    24   ar
    24    24    25   ar
    25    25    26   ar
    26    26    27   ar
    27    27    28   ar
    28    28    29   ar
    29    29    30   ar
    30    30    31   ar
    31    31    32    2
    32    32     1    1
    33    31     3   ar
    34    17     4   ar
    35    30    18   ar
    36    11     7   ar
    37    16    12   ar
    38    28    20   ar
    39    25    21   ar
    40     1    33    1
    41     1    34    1
    42     2    35    1
    43     5    36    1
    44     8    37    1
    45    10    38    1
    46    13    39    1
    47    14    40    1
    48    15    41    1
    49    19    42    1
    50    22    43    1
    51    24    44    1
    52    26    45    1
    53    27    46    1
    54    29    47    1
    55    32    48    1
