@<TRIPOS>MOLECULE
*****
 48 55 0 0 0
SMALL
GASTEIGER

@<TRIPOS>ATOM
      1 C          -0.9503   -3.7345    0.3851 C.3     1  UNL1       -0.0148
      2 C           0.3914   -3.0872    0.2541 C.2     1  UNL1       -0.0719
      3 C           0.2435   -1.7564    0.1344 C.ar    1  UNL1       -0.0134
      4 C           1.2775   -0.7081    0.1132 C.ar    1  UNL1       -0.0086
      5 C           2.6661   -1.0542   -0.0619 C.ar    1  UNL1       -0.0431
      6 C           3.7200   -0.1159   -0.1410 C.ar    1  UNL1        0.0168
      7 C           5.1082   -0.5087   -0.3162 C.ar    1  UNL1        0.1088
      8 N           5.5166   -1.4196   -1.1796 N.ar    1  UNL1       -0.2473
      9 C           6.8790   -1.6069   -1.0630 C.ar    1  UNL1        0.0354
     10 C           7.4993   -0.8634   -0.0847 C.ar    1  UNL1       -0.0042
     11 S           6.3406    0.1022    0.7254 S.2     1  UNL1       -0.0757
     12 C           3.2303    1.1933   -0.1121 C.ar    1  UNL1        0.0097
     13 C           3.9433    2.3502   -0.3242 C.ar    1  UNL1        0.0101
     14 N           3.0513    3.3945   -0.2962 N.ar    1  UNL1       -0.3659
     15 C           1.7742    2.9197   -0.0973 C.ar    1  UNL1        0.0100
     16 C           1.8437    1.5539    0.0653 C.ar    1  UNL1        0.0083
     17 C           0.7845    0.6382    0.2516 C.ar    1  UNL1       -0.0004
     18 C          -0.6577    0.9483    0.4500 C.ar    1  UNL1       -0.0083
     19 C          -1.1027    2.1590    0.9954 C.ar    1  UNL1       -0.0528
     20 C          -2.4612    2.4829    1.0780 C.ar    1  UNL1       -0.0534
     21 C          -3.4458    1.6466    0.5532 C.ar    1  UNL1       -0.0167
     22 C          -4.8118    2.0980    0.5992 C.ar    1  UNL1       -0.0534
     23 C          -5.9140    1.4085    0.0597 C.ar    1  UNL1       -0.0529
     24 C          -5.5097    0.2497   -0.5867 C.ar    1  UNL1       -0.0103
     25 C          -6.4031   -0.5292   -1.2809 C.ar    1  UNL1       -0.0166
     26 S          -5.6049   -1.8122   -2.0904 S.2     1  UNL1       -0.1039
     27 C          -4.0673   -1.3066   -1.5123 C.ar    1  UNL1       -0.0160
     28 C          -4.1541   -0.2473   -0.6358 C.ar    1  UNL1       -0.0026
     29 C          -3.0306    0.3871    0.0006 C.ar    1  UNL1       -0.0014
     30 C          -1.6540   -0.0155    0.1270 C.ar    1  UNL1       -0.0016
     31 C          -1.1800   -1.4217    0.1262 C.ar    1  UNL1       -0.0129
     32 C          -1.8719   -2.5552    0.3463 C.2     1  UNL1       -0.0719
     33 H          -1.0360   -4.2672    1.3367 H       1  UNL1        0.0350
     34 H          -1.1471   -4.4220   -0.4425 H       1  UNL1        0.0350
     35 H           1.3186   -3.6343    0.3201 H       1  UNL1        0.0581
     36 H           2.9383   -2.1058   -0.1549 H       1  UNL1        0.0631
     37 H           7.3739   -2.3111   -1.7206 H       1  UNL1        0.0835
     38 H           8.5436   -0.8496    0.1911 H       1  UNL1        0.0709
     39 H           4.9885    2.5393   -0.5275 H       1  UNL1        0.0813
     40 H           3.2900    4.3652   -0.4544 H       1  UNL1        0.1648
     41 H           0.9492    3.6158   -0.1284 H       1  UNL1        0.0813
     42 H          -0.3952    2.8700    1.4123 H       1  UNL1        0.0624
     43 H          -2.7304    3.4371    1.5284 H       1  UNL1        0.0624
     44 H          -5.0248    3.0574    1.0760 H       1  UNL1        0.0624
     45 H          -6.9249    1.7902    0.1027 H       1  UNL1        0.0624
     46 H          -7.4713   -0.4035   -1.3914 H       1  UNL1        0.0699
     47 H          -3.1908   -1.8298   -1.8655 H       1  UNL1        0.0700
     48 H          -2.9319   -2.6410    0.5272 H       1  UNL1        0.0581
@<TRIPOS>BOND
     1     1     2    1
     2     2     3    2
     3     3     4   ar
     4     4     5   ar
     5     5     6   ar
     6     6     7    1
     7     7     8   ar
     8     8     9   ar
     9     9    10   ar
    10    10    11   ar
    11     6    12   ar
    12    12    13   ar
    13    13    14   ar
    14    14    15   ar
    15    15    16   ar
    16    16    17   ar
    17    17    18   ar
    18    18    19   ar
    19    19    20   ar
    20    20    21   ar
    21    21    22   ar
    22    22    23   ar
    23    23    24   ar
    24    24    25   ar
    25    25    26   ar
    26    26    27   ar
    27    27    28   ar
    28    28    29   ar
    29    29    30   ar
    30    30    31   ar
    31    31    32    2
    32    32     1    1
    33    31     3   ar
    34    17     4   ar
    35    30    18   ar
    36    11     7   ar
    37    16    12   ar
    38    29    21   ar
    39    28    24   ar
    40     1    33    1
    41     1    34    1
    42     2    35    1
    43     5    36    1
    44     9    37    1
    45    10    38    1
    46    13    39    1
    47    14    40    1
    48    15    41    1
    49    19    42    1
    50    20    43    1
    51    22    44    1
    52    23    45    1
    53    25    46    1
    54    27    47    1
    55    32    48    1
