@<TRIPOS>MOLECULE
*****
 46 53 0 0 0
SMALL
GASTEIGER

@<TRIPOS>ATOM
      1 SI          2.5324   -3.7286   -1.1632 Si      1  UNL1        0.0000
      2 C           3.1970   -1.9970   -1.0168 C.2     1  UNL1        0.0000
      3 C           2.2183   -1.1069   -0.7466 C.ar    1  UNL1        0.0000
      4 C           2.4205    0.3335   -0.5687 C.ar    1  UNL1        0.0000
      5 C           1.3397    1.1041   -0.3125 C.ar    1  UNL1        0.0000
      6 C          -0.0348    0.5612   -0.2017 C.ar    1  UNL1        0.0000
      7 C          -1.0892    1.4464    0.0657 C.ar    1  UNL1        0.0000
      8 C          -2.4161    0.9706    0.1825 C.ar    1  UNL1        0.0000
      9 C          -3.5833    1.7425    0.4497 C.ar    1  UNL1        0.0000
     10 C          -3.5816    3.1099    0.6380 C.ar    1  UNL1        0.0000
     11 S          -5.1639    3.7395    0.9427 S.2     1  UNL1        0.0000
     12 C          -5.8880    2.1825    0.8277 C.ar    1  UNL1        0.0000
     13 C          -4.9127    1.2658    0.5670 C.ar    1  UNL1        0.0000
     14 C          -5.1191   -0.1332    0.4026 C.ar    1  UNL1        0.0000
     15 C          -6.3006   -0.8717    0.4635 C.ar    1  UNL1        0.0000
     16 C          -5.9120   -2.1744    0.2306 C.ar    1  UNL1        0.0000
     17 N          -4.5464   -2.1997    0.0391 N.ar    1  UNL1        0.0000
     18 C          -4.0147   -0.9264    0.1412 C.ar    1  UNL1        0.0000
     19 C          -2.6789   -0.4234    0.0265 C.ar    1  UNL1        0.0000
     20 C          -1.6100   -1.3018   -0.2419 C.ar    1  UNL1        0.0000
     21 C          -0.2944   -0.8227   -0.3571 C.ar    1  UNL1        0.0000
     22 C           0.8634   -1.7029   -0.6401 C.ar    1  UNL1        0.0000
     23 C           0.8259   -3.0401   -0.8234 C.2     1  UNL1        0.0000
     24 C           3.6801    0.9936   -0.6319 C.ar    1  UNL1        0.0000
     25 S           4.2343    1.8764   -2.0093 S.2     1  UNL1        0.0000
     26 C           5.7372    2.2791   -1.2677 C.ar    1  UNL1        0.0000
     27 C           5.7522    1.7316   -0.0321 C.ar    1  UNL1        0.0000
     28 C           6.7049    1.7256    1.0146 C.ar    1  UNL1        0.0000
     29 C           6.2635    1.0085    2.1328 C.ar    1  UNL1        0.0000
     30 S           4.6647    0.2831    2.0152 S.2     1  UNL1        0.0000
     31 C           4.6262    1.0072    0.3595 C.ar    1  UNL1        0.0000
     32 H           3.0011   -4.6218   -0.0767 H       1  UNL1        0.0000
     33 H           2.6494   -4.2768   -2.5358 H       1  UNL1        0.0000
     34 H           4.2493   -1.7948   -1.1404 H       1  UNL1        0.0000
     35 H           1.4479    2.1762   -0.1678 H       1  UNL1        0.0000
     36 H          -0.8820    2.5059    0.1839 H       1  UNL1        0.0000
     37 H          -2.7522    3.8017    0.6193 H       1  UNL1        0.0000
     38 H          -6.9528    2.0512    0.9562 H       1  UNL1        0.0000
     39 H          -7.3096   -0.5305    0.6495 H       1  UNL1        0.0000
     40 H          -6.4857   -3.0904    0.1835 H       1  UNL1        0.0000
     41 H          -4.0081   -3.0331   -0.1496 H       1  UNL1        0.0000
     42 H          -1.8026   -2.3618   -0.3616 H       1  UNL1        0.0000
     43 H          -0.0256   -3.6982   -0.7976 H       1  UNL1        0.0000
     44 H           6.4812    2.8716   -1.7807 H       1  UNL1        0.0000
     45 H           7.6721    2.2121    0.9810 H       1  UNL1        0.0000
     46 H           6.8027    0.8564    3.0580 H       1  UNL1        0.0000
@<TRIPOS>BOND
     1     1     2    1
     2     2     3    2
     3     3     4   ar
     4     4     5   ar
     5     5     6   ar
     6     6     7   ar
     7     7     8   ar
     8     8     9   ar
     9     9    10   ar
    10    10    11   ar
    11    11    12   ar
    12    12    13   ar
    13    13    14   ar
    14    14    15   ar
    15    15    16   ar
    16    16    17   ar
    17    17    18   ar
    18    18    19   ar
    19    19    20   ar
    20    20    21   ar
    21    21    22   ar
    22    22    23    2
    23     4    24    1
    24    24    25   ar
    25    25    26   ar
    26    26    27   ar
    27    27    28   ar
    28    28    29   ar
    29    29    30   ar
    30    30    31   ar
    31    23     1    1
    32    31    24   ar
    33    22     3   ar
    34    31    27   ar
    35    21     6   ar
    36    19     8   ar
    37    13     9   ar
    38    18    14   ar
    39     1    32    1
    40     1    33    1
    41     2    34    1
    42     5    35    1
    43     7    36    1
    44    10    37    1
    45    12    38    1
    46    15    39    1
    47    16    40    1
    48    17    41    1
    49    20    42    1
    50    23    43    1
    51    26    44    1
    52    28    45    1
    53    29    46    1
