@<TRIPOS>MOLECULE
*****
 47 54 0 0 0
SMALL
GASTEIGER

@<TRIPOS>ATOM
      1 C          -3.4238   -0.6646    3.0327 C.3     1  UNL1       -0.0148
      2 C          -1.9814   -0.8434    2.6713 C.2     1  UNL1       -0.0719
      3 C          -1.7536   -0.3571    1.4379 C.ar    1  UNL1       -0.0133
      4 C          -0.5096   -0.3678    0.6373 C.ar    1  UNL1       -0.0086
      5 C           0.6859   -0.9645    1.1855 C.ar    1  UNL1       -0.0446
      6 C           1.8880   -1.1438    0.4694 C.ar    1  UNL1       -0.0009
      7 C           3.0935   -1.7318    1.0151 C.ar    1  UNL1        0.0292
      8 S           3.0575   -3.3000    1.7787 S.2     1  UNL1       -0.0939
      9 C           4.7584   -3.2984    2.1338 C.ar    1  UNL1        0.0002
     10 C           5.2727   -2.1390    1.6786 C.ar    1  UNL1        0.0542
     11 N           6.5711   -1.7288    1.7598 N.ar    1  UNL1       -0.3602
     12 C           6.4993   -0.4802    1.1441 C.ar    1  UNL1        0.0028
     13 C           5.1853   -0.1841    0.7212 C.ar    1  UNL1       -0.0356
     14 C           4.3715   -1.2928    1.0740 C.ar    1  UNL1        0.0144
     15 C           1.7516   -0.7195   -0.8537 C.ar    1  UNL1        0.0082
     16 C           2.6814   -0.8654   -1.8561 C.ar    1  UNL1        0.0100
     17 N           2.1097   -0.4009   -3.0129 N.ar    1  UNL1       -0.3659
     18 C           0.8213    0.0222   -2.7662 C.ar    1  UNL1        0.0100
     19 C           0.5731   -0.1066   -1.4170 C.ar    1  UNL1        0.0083
     20 C          -0.6119    0.1784   -0.7003 C.ar    1  UNL1       -0.0003
     21 C          -1.8319    0.8913   -1.1833 C.ar    1  UNL1       -0.0054
     22 C          -1.8453    1.7059   -2.3310 C.ar    1  UNL1       -0.0526
     23 C          -3.0034    2.3475   -2.8040 C.ar    1  UNL1       -0.0504
     24 C          -4.1972    2.2038   -2.0870 C.ar    1  UNL1        0.0208
     25 C          -5.5248    2.6835   -2.2407 C.ar    1  UNL1       -0.0161
     26 C          -6.2307    2.2161   -1.1592 C.ar    1  UNL1        0.0932
     27 O          -5.4275    1.4845   -0.3479 O.2     1  UNL1       -0.4623
     28 C          -4.1795    1.4624   -0.9095 C.ar    1  UNL1        0.1430
     29 C          -3.0310    0.8252   -0.4144 C.ar    1  UNL1        0.0330
     30 C          -3.0026    0.1761    0.9001 C.ar    1  UNL1       -0.0100
     31 C          -3.9757    0.0004    1.8111 C.2     1  UNL1       -0.0718
     32 H          -3.5338   -0.0266    3.9145 H       1  UNL1        0.0350
     33 H          -3.9090   -1.6287    3.2113 H       1  UNL1        0.0350
     34 H          -1.2699   -1.3218    3.3249 H       1  UNL1        0.0581
     35 H           0.6701   -1.3091    2.2182 H       1  UNL1        0.0630
     36 H           5.2462   -4.1202    2.6379 H       1  UNL1        0.0714
     37 H           7.3568   -2.2195    2.1687 H       1  UNL1        0.1653
     38 H           7.4004    0.1133    1.0569 H       1  UNL1        0.0807
     39 H           4.8745    0.7257    0.2243 H       1  UNL1        0.0639
     40 H           3.6788   -1.2844   -1.8672 H       1  UNL1        0.0813
     41 H           2.5504   -0.4162   -3.9235 H       1  UNL1        0.1648
     42 H           0.2159    0.3362   -3.6024 H       1  UNL1        0.0813
     43 H          -0.9312    1.9067   -2.8793 H       1  UNL1        0.0624
     44 H          -2.9617    2.9570   -3.7019 H       1  UNL1        0.0625
     45 H          -5.9138    3.3012   -3.0371 H       1  UNL1        0.0655
     46 H          -7.2566    2.3150   -0.8338 H       1  UNL1        0.1030
     47 H          -5.0077    0.3005    1.7208 H       1  UNL1        0.0581
@<TRIPOS>BOND
     1     1     2    1
     2     2     3    2
     3     3     4   ar
     4     4     5   ar
     5     5     6   ar
     6     6     7    1
     7     7     8   ar
     8     8     9   ar
     9     9    10   ar
    10    10    11   ar
    11    11    12   ar
    12    12    13   ar
    13    13    14   ar
    14     6    15   ar
    15    15    16   ar
    16    16    17   ar
    17    17    18   ar
    18    18    19   ar
    19    19    20   ar
    20    20    21   ar
    21    21    22   ar
    22    22    23   ar
    23    23    24   ar
    24    24    25   ar
    25    25    26   ar
    26    26    27   ar
    27    27    28   ar
    28    28    29   ar
    29    29    30   ar
    30    30    31    2
    31    31     1    1
    32    30     3   ar
    33    20     4   ar
    34    29    21   ar
    35    14     7   ar
    36    19    15   ar
    37    28    24   ar
    38    14    10   ar
    39     1    32    1
    40     1    33    1
    41     2    34    1
    42     5    35    1
    43     9    36    1
    44    11    37    1
    45    12    38    1
    46    13    39    1
    47    16    40    1
    48    17    41    1
    49    18    42    1
    50    22    43    1
    51    23    44    1
    52    25    45    1
    53    26    46    1
    54    31    47    1
