@<TRIPOS>MOLECULE
*****
 47 54 0 0 0
SMALL
GASTEIGER

@<TRIPOS>ATOM
      1 C           1.6392    2.0964   -3.3613 C.3     1  UNL1        0.0000
      2 C           0.4680    1.8065   -2.4824 C.2     1  UNL1        0.0000
      3 C           0.8559    1.0777   -1.4201 C.ar    1  UNL1        0.0000
      4 C           0.0144    0.5031   -0.3704 C.ar    1  UNL1        0.0000
      5 C          -1.4377    0.7848   -0.3050 C.ar    1  UNL1        0.0000
      6 C          -2.3019    0.2046    0.5547 C.ar    1  UNL1        0.0000
      7 C          -3.6620    0.6334    0.5030 C.ar    1  UNL1        0.0000
      8 S          -4.3963    1.4984    1.8424 S.2     1  UNL1        0.0000
      9 C          -5.9322    1.6602    1.0540 C.ar    1  UNL1        0.0000
     10 C          -5.8324    1.0760   -0.1523 C.ar    1  UNL1        0.0000
     11 O          -6.8133    0.9821   -1.0902 O.2     1  UNL1        0.0000
     12 C          -6.1257    0.2956   -2.0756 C.ar    1  UNL1        0.0000
     13 C          -4.7979   -0.0063   -1.7457 C.ar    1  UNL1        0.0000
     14 C          -4.6141    0.5232   -0.4559 C.ar    1  UNL1        0.0000
     15 C          -1.7636   -0.8392    1.4169 C.ar    1  UNL1        0.0000
     16 C          -2.5030   -1.6552    2.1971 C.2     1  UNL1        0.0000
     17 SI         -1.4610   -2.9742    2.9835 Si      1  UNL1        0.0000
     18 C           0.0096   -2.2530    2.0860 C.2     1  UNL1        0.0000
     19 C          -0.3070   -1.1385    1.3894 C.ar    1  UNL1        0.0000
     20 C           0.6101   -0.3145    0.5559 C.ar    1  UNL1        0.0000
     21 C           2.1297   -0.3536    0.6488 C.ar    1  UNL1        0.0000
     22 C           2.7444   -0.7560    1.8371 C.ar    1  UNL1        0.0000
     23 C           4.1296   -0.8709    1.9493 C.ar    1  UNL1        0.0000
     24 C           4.9664   -0.5521    0.8621 C.ar    1  UNL1        0.0000
     25 C           6.3982   -0.6329    0.7771 C.ar    1  UNL1        0.0000
     26 C           6.8839   -0.2059   -0.4304 C.ar    1  UNL1        0.0000
     27 S           5.6369    0.3056   -1.4585 S.2     1  UNL1        0.0000
     28 C           4.3810   -0.0468   -0.3120 C.ar    1  UNL1        0.0000
     29 C           2.9647    0.1069   -0.4109 C.ar    1  UNL1        0.0000
     30 C           2.2963    0.8298   -1.5088 C.ar    1  UNL1        0.0000
     31 C           2.7525    1.4143   -2.6316 C.2     1  UNL1        0.0000
     32 H           1.5015    1.6699   -4.3591 H       1  UNL1        0.0000
     33 H           1.8182    3.1725   -3.4412 H       1  UNL1        0.0000
     34 H          -0.5340    2.1230   -2.7240 H       1  UNL1        0.0000
     35 H          -1.8012    1.5603   -0.9737 H       1  UNL1        0.0000
     36 H          -6.7849    2.1530    1.4969 H       1  UNL1        0.0000
     37 H          -6.7168    0.0906   -2.9587 H       1  UNL1        0.0000
     38 H          -4.0902   -0.5369   -2.3664 H       1  UNL1        0.0000
     39 H          -3.5733   -1.6404    2.3301 H       1  UNL1        0.0000
     40 H          -1.3478   -2.8208    4.4538 H       1  UNL1        0.0000
     41 H          -1.7998   -4.3359    2.5053 H       1  UNL1        0.0000
     42 H           0.9617   -2.7518    2.1530 H       1  UNL1        0.0000
     43 H           2.1594   -0.9691    2.7273 H       1  UNL1        0.0000
     44 H           4.5630   -1.2104    2.8874 H       1  UNL1        0.0000
     45 H           7.0350   -0.9892    1.5776 H       1  UNL1        0.0000
     46 H           7.9152   -0.1643   -0.7527 H       1  UNL1        0.0000
     47 H           3.7615    1.4504   -3.0019 H       1  UNL1        0.0000
@<TRIPOS>BOND
     1     1     2    1
     2     2     3    2
     3     3     4   ar
     4     4     5   ar
     5     5     6   ar
     6     6     7    1
     7     7     8   ar
     8     8     9   ar
     9     9    10   ar
    10    10    11   ar
    11    11    12   ar
    12    12    13   ar
    13    13    14   ar
    14     6    15   ar
    15    15    16    2
    16    16    17    1
    17    17    18    1
    18    18    19    2
    19    19    20   ar
    20    20    21   ar
    21    21    22   ar
    22    22    23   ar
    23    23    24   ar
    24    24    25   ar
    25    25    26   ar
    26    26    27   ar
    27    27    28   ar
    28    28    29   ar
    29    29    30   ar
    30    30    31    2
    31    31     1    1
    32    30     3   ar
    33    20     4   ar
    34    29    21   ar
    35    14     7   ar
    36    19    15   ar
    37    28    24   ar
    38    14    10   ar
    39     1    32    1
    40     1    33    1
    41     2    34    1
    42     5    35    1
    43     9    36    1
    44    12    37    1
    45    13    38    1
    46    16    39    1
    47    17    40    1
    48    17    41    1
    49    18    42    1
    50    22    43    1
    51    23    44    1
    52    25    45    1
    53    26    46    1
    54    31    47    1
