@<TRIPOS>MOLECULE
*****
 48 55 0 0 0
SMALL
GASTEIGER

@<TRIPOS>ATOM
      1 C          -0.6250    4.3784   -1.4479 C.3     1  UNL1       -0.0148
      2 C           0.4616    3.3877   -1.1600 C.2     1  UNL1       -0.0719
      3 C          -0.0720    2.2415   -0.7014 C.ar    1  UNL1       -0.0135
      4 C           0.5961    1.0106   -0.2323 C.ar    1  UNL1       -0.0086
      5 C           2.0405    0.9362   -0.2284 C.ar    1  UNL1       -0.0445
      6 C           2.7813   -0.1372    0.3094 C.ar    1  UNL1        0.0007
      7 C           4.2252   -0.2327    0.3127 C.ar    1  UNL1        0.0309
      8 S           5.2025    1.0583    0.9671 S.2     1  UNL1       -0.0923
      9 C           6.7011    0.2491    0.6396 C.ar    1  UNL1        0.0192
     10 C           6.4072   -0.9276    0.0591 C.ar    1  UNL1        0.1424
     11 O           7.2970   -1.8654   -0.3641 O.2     1  UNL1       -0.4624
     12 C           6.4177   -2.8088   -0.8651 C.ar    1  UNL1        0.0932
     13 C           5.0671   -2.4552   -0.7472 C.ar    1  UNL1       -0.0150
     14 C           5.0729   -1.1949   -0.1216 C.ar    1  UNL1        0.0349
     15 C           1.9341   -1.0849    0.8798 C.ar    1  UNL1        0.0287
     16 C           2.2965   -2.1953    1.5986 C.ar    1  UNL1        0.1000
     17 O           1.1824   -2.8234    2.0647 O.2     1  UNL1       -0.4698
     18 C           0.1006   -2.1022    1.6472 C.ar    1  UNL1        0.1000
     19 C           0.4949   -1.0372    0.8719 C.ar    1  UNL1        0.0287
     20 C          -0.2817   -0.0292    0.2627 C.ar    1  UNL1        0.0012
     21 C          -1.7667    0.0470    0.1451 C.ar    1  UNL1       -0.0083
     22 C          -2.6165   -1.0598    0.3329 C.ar    1  UNL1       -0.0457
     23 C          -4.0208   -0.9672    0.2625 C.ar    1  UNL1       -0.0173
     24 C          -4.8439   -2.0842    0.4879 C.ar    1  UNL1       -0.0540
     25 C          -6.2339   -1.9749    0.4217 C.ar    1  UNL1       -0.0612
     26 C          -6.8200   -0.7489    0.1252 C.ar    1  UNL1       -0.0612
     27 C          -6.0159    0.3669   -0.1095 C.ar    1  UNL1       -0.0540
     28 C          -4.6154    0.2695   -0.0453 C.ar    1  UNL1       -0.0173
     29 C          -3.7907    1.3696   -0.3089 C.ar    1  UNL1       -0.0457
     30 C          -2.3896    1.2640   -0.2447 C.ar    1  UNL1       -0.0093
     31 C          -1.5226    2.3806   -0.6560 C.ar    1  UNL1       -0.0135
     32 C          -1.8582    3.6115   -1.0810 C.2     1  UNL1       -0.0719
     33 H          -0.6336    4.6591   -2.5051 H       1  UNL1        0.0350
     34 H          -0.5179    5.2736   -0.8285 H       1  UNL1        0.0350
     35 H           1.5078    3.6130   -1.2927 H       1  UNL1        0.0581
     36 H           2.6046    1.7620   -0.6605 H       1  UNL1        0.0630
     37 H           7.6708    0.6613    0.8766 H       1  UNL1        0.0731
     38 H           6.9037   -3.6832   -1.2783 H       1  UNL1        0.1030
     39 H           4.2235   -3.0439   -1.0785 H       1  UNL1        0.0655
     40 H           3.2357   -2.6442    1.8905 H       1  UNL1        0.1036
     41 H          -0.8395   -2.4786    2.0206 H       1  UNL1        0.1036
     42 H          -2.2002   -2.0461    0.5009 H       1  UNL1        0.0630
     43 H          -4.4061   -3.0520    0.7227 H       1  UNL1        0.0624
     44 H          -6.8568   -2.8472    0.6019 H       1  UNL1        0.0618
     45 H          -7.9019   -0.6603    0.0721 H       1  UNL1        0.0618
     46 H          -6.4911    1.3158   -0.3482 H       1  UNL1        0.0624
     47 H          -4.2516    2.3125   -0.5906 H       1  UNL1        0.0630
     48 H          -2.8531    4.0164   -1.1775 H       1  UNL1        0.0581
@<TRIPOS>BOND
     1     1     2    1
     2     2     3    2
     3     3     4   ar
     4     4     5   ar
     5     5     6   ar
     6     6     7    1
     7     7     8   ar
     8     8     9   ar
     9     9    10   ar
    10    10    11   ar
    11    11    12   ar
    12    12    13   ar
    13    13    14   ar
    14     6    15   ar
    15    15    16   ar
    16    16    17   ar
    17    17    18   ar
    18    18    19   ar
    19    19    20   ar
    20    20    21   ar
    21    21    22   ar
    22    22    23   ar
    23    23    24   ar
    24    24    25   ar
    25    25    26   ar
    26    26    27   ar
    27    27    28   ar
    28    28    29   ar
    29    29    30   ar
    30    30    31   ar
    31    31    32    2
    32    32     1    1
    33    31     3   ar
    34    20     4   ar
    35    30    21   ar
    36    14     7   ar
    37    19    15   ar
    38    28    23   ar
    39    14    10   ar
    40     1    33    1
    41     1    34    1
    42     2    35    1
    43     5    36    1
    44     9    37    1
    45    12    38    1
    46    13    39    1
    47    16    40    1
    48    18    41    1
    49    22    42    1
    50    24    43    1
    51    25    44    1
    52    26    45    1
    53    27    46    1
    54    29    47    1
    55    32    48    1
