@<TRIPOS>MOLECULE
*****
 48 55 0 0 0
SMALL
GASTEIGER

@<TRIPOS>ATOM
      1 C          -0.7770    3.5500   -1.5375 C.3     1  UNL1        0.0000
      2 C           0.3913    2.6459   -1.3387 C.2     1  UNL1        0.0000
      3 C          -0.0165    1.4911   -0.7839 C.ar    1  UNL1        0.0000
      4 C           0.7968    0.3234   -0.4253 C.ar    1  UNL1        0.0000
      5 C           2.2042    0.3607   -0.4855 C.ar    1  UNL1        0.0000
      6 C           2.9798   -0.7071   -0.0262 C.ar    1  UNL1        0.0000
      7 C           2.3256   -1.8040    0.5291 C.ar    1  UNL1        0.0000
      8 C           0.9261   -1.8464    0.5843 C.ar    1  UNL1        0.0000
      9 C           0.1185   -0.8214    0.0570 C.ar    1  UNL1        0.0000
     10 C          -1.3733   -0.8560    0.0963 C.ar    1  UNL1        0.0000
     11 C          -2.1708   -2.0152    0.2813 C.ar    1  UNL1        0.0000
     12 C          -1.8129   -3.3429    0.1915 C.ar    1  UNL1        0.0000
     13 N          -2.9294   -4.1108    0.4475 N.ar    1  UNL1        0.0000
     14 C          -4.0215   -3.3022    0.6455 C.ar    1  UNL1        0.0000
     15 C          -3.5865   -2.0078    0.5084 C.ar    1  UNL1        0.0000
     16 C          -4.3598   -0.8613    0.5658 C.ar    1  UNL1        0.0000
     17 C          -5.7880   -0.7711    0.8530 C.2     1  UNL1        0.0000
     18 C          -6.2405    0.4929    0.8248 C.2     1  UNL1        0.0000
     19 SI         -4.8967    1.7300    0.4098 Si      1  UNL1        0.0000
     20 C          -3.6157    0.3285    0.2652 C.ar    1  UNL1        0.0000
     21 C          -2.2000    0.3441   -0.0328 C.ar    1  UNL1        0.0000
     22 C          -1.4649    1.5314   -0.5582 C.ar    1  UNL1        0.0000
     23 C          -1.9083    2.7169   -1.0184 C.2     1  UNL1        0.0000
     24 C           4.4384   -0.6394   -0.0798 C.ar    1  UNL1        0.0000
     25 S           5.3576   -1.9015   -0.8242 S.2     1  UNL1        0.0000
     26 C           6.8661   -1.1217   -0.5299 C.ar    1  UNL1        0.0000
     27 C           6.6696    0.0639    0.1169 C.ar    1  UNL1        0.0000
     28 S           7.8406    1.3065    0.6886 S.2     1  UNL1        0.0000
     29 C           6.4165    2.1599    1.2701 C.ar    1  UNL1        0.0000
     30 C           5.1835    1.5393    1.0369 C.ar    1  UNL1        0.0000
     31 C           5.3159    0.3026    0.3500 C.ar    1  UNL1        0.0000
     32 H          -0.9167    3.7877   -2.5961 H       1  UNL1        0.0000
     33 H          -0.6696    4.4744   -0.9627 H       1  UNL1        0.0000
     34 H           1.3961    2.9130   -1.6245 H       1  UNL1        0.0000
     35 H           2.7079    1.2376   -0.8828 H       1  UNL1        0.0000
     36 H           2.8925   -2.6310    0.9514 H       1  UNL1        0.0000
     37 H           0.4874   -2.6941    1.1000 H       1  UNL1        0.0000
     38 H          -0.8870   -3.8398   -0.0582 H       1  UNL1        0.0000
     39 H          -2.9479   -5.1225    0.4493 H       1  UNL1        0.0000
     40 H          -4.9973   -3.7289    0.8316 H       1  UNL1        0.0000
     41 H          -6.3945   -1.6387    1.0694 H       1  UNL1        0.0000
     42 H          -7.2545    0.8130    1.0077 H       1  UNL1        0.0000
     43 H          -4.6235    2.6488    1.5434 H       1  UNL1        0.0000
     44 H          -5.1790    2.4032   -0.8840 H       1  UNL1        0.0000
     45 H          -2.9181    3.0745   -1.0900 H       1  UNL1        0.0000
     46 H           7.8101   -1.5521   -0.8339 H       1  UNL1        0.0000
     47 H           6.5804    3.1036    1.7724 H       1  UNL1        0.0000
     48 H           4.2450    1.9730    1.3610 H       1  UNL1        0.0000
@<TRIPOS>BOND
     1     1     2    1
     2     2     3    2
     3     3     4   ar
     4     4     5   ar
     5     5     6   ar
     6     6     7   ar
     7     7     8   ar
     8     8     9   ar
     9     9    10   ar
    10    10    11   ar
    11    11    12   ar
    12    12    13   ar
    13    13    14   ar
    14    14    15   ar
    15    15    16   ar
    16    16    17    1
    17    17    18    2
    18    18    19    1
    19    19    20    1
    20    20    21   ar
    21    21    22   ar
    22    22    23    2
    23     6    24    1
    24    24    25   ar
    25    25    26   ar
    26    26    27   ar
    27    27    28   ar
    28    28    29   ar
    29    29    30   ar
    30    30    31   ar
    31    23     1    1
    32    31    24   ar
    33    22     3   ar
    34    31    27   ar
    35     9     4   ar
    36    21    10   ar
    37    15    11   ar
    38    20    16   ar
    39     1    32    1
    40     1    33    1
    41     2    34    1
    42     5    35    1
    43     7    36    1
    44     8    37    1
    45    12    38    1
    46    13    39    1
    47    14    40    1
    48    17    41    1
    49    18    42    1
    50    19    43    1
    51    19    44    1
    52    23    45    1
    53    26    46    1
    54    29    47    1
    55    30    48    1
