@<TRIPOS>MOLECULE
*****
 47 53 0 0 0
SMALL
GASTEIGER

@<TRIPOS>ATOM
      1 C          -1.0439    1.2418   -3.5934 C.3     1  UNL1        0.0000
      2 C           0.2202    1.2234   -2.7992 C.2     1  UNL1        0.0000
      3 C          -0.0329    0.7735   -1.5569 C.ar    1  UNL1        0.0000
      4 C           0.9423    0.3161   -0.5587 C.ar    1  UNL1        0.0000
      5 C           2.3261    0.5026   -0.7487 C.ar    1  UNL1        0.0000
      6 C           3.2569   -0.1408    0.0672 C.ar    1  UNL1        0.0000
      7 C           2.7837   -0.9925    1.0613 C.ar    1  UNL1        0.0000
      8 C           1.4066   -1.1564    1.2683 C.ar    1  UNL1        0.0000
      9 C           0.4441   -0.4519    0.5253 C.ar    1  UNL1        0.0000
     10 C          -1.0252   -0.4899    0.8052 C.ar    1  UNL1        0.0000
     11 C          -1.6468   -0.9275    1.9921 C.ar    1  UNL1        0.0000
     12 C          -1.0880   -1.3480    3.1779 C.ar    1  UNL1        0.0000
     13 O          -2.0532   -1.6867    4.0807 O.2     1  UNL1        0.0000
     14 C          -3.2533   -1.4260    3.4997 C.ar    1  UNL1        0.0000
     15 C          -3.0569   -0.9232    2.2379 C.ar    1  UNL1        0.0000
     16 C          -4.0507   -0.4171    1.3821 C.ar    1  UNL1        0.0000
     17 C          -5.4370   -0.3987    1.6869 C.ar    1  UNL1        0.0000
     18 C          -6.3242    0.2379    0.8338 C.ar    1  UNL1        0.0000
     19 C          -5.8311    0.8805   -0.2901 C.ar    1  UNL1        0.0000
     20 C          -4.4573    0.8477   -0.5847 C.ar    1  UNL1        0.0000
     21 C          -3.4952    0.1518    0.1949 C.ar    1  UNL1        0.0000
     22 C          -2.0374    0.0436   -0.1092 C.ar    1  UNL1        0.0000
     23 C          -1.4656    0.5300   -1.4017 C.ar    1  UNL1        0.0000
     24 C          -2.0379    0.7119   -2.6073 C.2     1  UNL1        0.0000
     25 C           4.6915    0.0347   -0.1239 C.2     1  UNL1        0.0000
     26 C           5.5672    0.5278    0.7771 C.2     1  UNL1        0.0000
     27 C           6.9517    0.5841    0.3331 C.2     1  UNL1        0.0000
     28 C           7.1741    0.1302   -0.9138 C.2     1  UNL1        0.0000
     29 SI          5.5786   -0.4551   -1.7229 Si      1  UNL1        0.0000
     30 H          -1.3016    2.2542   -3.9168 H       1  UNL1        0.0000
     31 H          -0.9685    0.5836   -4.4640 H       1  UNL1        0.0000
     32 H           1.1863    1.4204   -3.2363 H       1  UNL1        0.0000
     33 H           2.6799    1.1424   -1.5525 H       1  UNL1        0.0000
     34 H           3.4806   -1.5523    1.6823 H       1  UNL1        0.0000
     35 H           1.1234   -1.8901    2.0119 H       1  UNL1        0.0000
     36 H          -0.0891   -1.4548    3.5696 H       1  UNL1        0.0000
     37 H          -4.1159   -1.6144    4.1225 H       1  UNL1        0.0000
     38 H          -5.8183   -0.8596    2.5933 H       1  UNL1        0.0000
     39 H          -7.3856    0.2651    1.0625 H       1  UNL1        0.0000
     40 H          -6.5071    1.4289   -0.9420 H       1  UNL1        0.0000
     41 H          -4.1501    1.4447   -1.4362 H       1  UNL1        0.0000
     42 H          -3.0558    0.5024   -2.8909 H       1  UNL1        0.0000
     43 H           5.2922    0.8720    1.7671 H       1  UNL1        0.0000
     44 H           7.7280    0.9703    0.9823 H       1  UNL1        0.0000
     45 H           8.1195    0.0849   -1.4305 H       1  UNL1        0.0000
     46 H           5.1909    0.3988   -2.8748 H       1  UNL1        0.0000
     47 H           5.5847   -1.9201   -1.9609 H       1  UNL1        0.0000
@<TRIPOS>BOND
     1     1     2    1
     2     2     3    2
     3     3     4   ar
     4     4     5   ar
     5     5     6   ar
     6     6     7   ar
     7     7     8   ar
     8     8     9   ar
     9     9    10   ar
    10    10    11   ar
    11    11    12   ar
    12    12    13   ar
    13    13    14   ar
    14    14    15   ar
    15    15    16   ar
    16    16    17   ar
    17    17    18   ar
    18    18    19   ar
    19    19    20   ar
    20    20    21   ar
    21    21    22   ar
    22    22    23   ar
    23    23    24    2
    24     6    25    1
    25    25    26    2
    26    26    27    1
    27    27    28    2
    28    28    29    1
    29    24     1    1
    30    29    25    1
    31    23     3   ar
    32     9     4   ar
    33    22    10   ar
    34    15    11   ar
    35    21    16   ar
    36     1    30    1
    37     1    31    1
    38     2    32    1
    39     5    33    1
    40     7    34    1
    41     8    35    1
    42    12    36    1
    43    14    37    1
    44    17    38    1
    45    18    39    1
    46    19    40    1
    47    20    41    1
    48    24    42    1
    49    26    43    1
    50    27    44    1
    51    28    45    1
    52    29    46    1
    53    29    47    1
