@<TRIPOS>MOLECULE
*****
 50 57 0 0 0
SMALL
GASTEIGER

@<TRIPOS>ATOM
      1 C          -1.6409    0.8394    3.8212 C.3     1  UNL1       -0.0148
      2 C          -0.3813    0.6975    3.0322 C.2     1  UNL1       -0.0719
      3 C          -0.6734    0.3580    1.7644 C.ar    1  UNL1       -0.0135
      4 C           0.2501    0.0273    0.6705 C.ar    1  UNL1       -0.0093
      5 C           1.6411   -0.0465    0.8830 C.ar    1  UNL1       -0.0457
      6 C           2.5065   -0.5307   -0.1033 C.ar    1  UNL1       -0.0167
      7 C           1.9431   -0.9896   -1.2936 C.ar    1  UNL1       -0.0534
      8 C           0.5621   -0.9066   -1.5145 C.ar    1  UNL1       -0.0528
      9 C          -0.3152   -0.3265   -0.5802 C.ar    1  UNL1       -0.0089
     10 C          -1.7849   -0.1784   -0.8175 C.ar    1  UNL1       -0.0011
     11 C          -2.4288   -0.1631   -2.0945 C.ar    1  UNL1       -0.0020
     12 C          -1.8164   -0.0060   -3.3193 C.ar    1  UNL1       -0.0160
     13 S          -2.9225   -0.0645   -4.6352 S.2     1  UNL1       -0.1038
     14 C          -4.2690   -0.1793   -3.5840 C.ar    1  UNL1       -0.0160
     15 C          -3.8706   -0.1774   -2.2701 C.ar    1  UNL1       -0.0029
     16 C          -4.7492   -0.1654   -1.2026 C.ar    1  UNL1       -0.0130
     17 C          -6.1894   -0.1757   -1.1403 C.2     1  UNL1       -0.0573
     18 C          -6.5032   -0.0590    0.1580 C.2     1  UNL1       -0.0791
     19 C          -5.2871    0.0544    1.0530 C.3     1  UNL1       -0.0080
     20 C          -4.1490   -0.0460    0.0676 C.ar    1  UNL1       -0.0276
     21 C          -2.7350   -0.0157    0.2805 C.ar    1  UNL1       -0.0052
     22 C          -2.1251    0.2640    1.6047 C.ar    1  UNL1       -0.0132
     23 C          -2.6898    0.5304    2.7971 C.2     1  UNL1       -0.0719
     24 C           3.9414   -0.6148    0.1336 C.ar    1  UNL1       -0.0097
     25 C           4.5332   -1.4950    1.0783 C.ar    1  UNL1       -0.0534
     26 C           5.9424   -1.5968    1.3175 C.ar    1  UNL1       -0.0606
     27 C           6.9126   -0.8282    0.6416 C.ar    1  UNL1       -0.0535
     28 C           6.3333    0.0421   -0.2812 C.ar    1  UNL1       -0.0103
     29 C           7.0806    0.8977   -1.0522 C.ar    1  UNL1       -0.0166
     30 S           6.0799    1.8492   -2.0750 S.2     1  UNL1       -0.1039
     31 C           4.6435    1.1138   -1.4798 C.ar    1  UNL1       -0.0160
     32 C           4.9154    0.1530   -0.5324 C.ar    1  UNL1       -0.0032
     33 H          -1.6739    0.1237    4.6477 H       1  UNL1        0.0350
     34 H          -1.7538    1.8562    4.2084 H       1  UNL1        0.0350
     35 H           0.5992    0.8237    3.4629 H       1  UNL1        0.0581
     36 H           2.0641    0.2551    1.8380 H       1  UNL1        0.0630
     37 H           2.5745   -1.4373   -2.0594 H       1  UNL1        0.0624
     38 H           0.1908   -1.3553   -2.4308 H       1  UNL1        0.0624
     39 H          -0.7778    0.1636   -3.5573 H       1  UNL1        0.0700
     40 H          -5.2693   -0.2078   -3.9928 H       1  UNL1        0.0700
     41 H          -6.8633   -0.2628   -1.9755 H       1  UNL1        0.0621
     42 H          -7.5137   -0.0356    0.5418 H       1  UNL1        0.0575
     43 H          -5.3005    1.0267    1.5533 H       1  UNL1        0.0356
     44 H          -5.2679   -0.7700    1.7714 H       1  UNL1        0.0356
     45 H          -3.7350    0.5644    3.0458 H       1  UNL1        0.0581
     46 H           3.8780   -2.1478    1.6581 H       1  UNL1        0.0624
     47 H           6.2813   -2.3139    2.0661 H       1  UNL1        0.0618
     48 H           7.9728   -0.9191    0.8368 H       1  UNL1        0.0624
     49 H           8.1537    1.0278   -1.0770 H       1  UNL1        0.0699
     50 H           3.6862    1.4375   -1.8648 H       1  UNL1        0.0700
@<TRIPOS>BOND
     1     1     2    1
     2     2     3    2
     3     3     4   ar
     4     4     5   ar
     5     5     6   ar
     6     6     7   ar
     7     7     8   ar
     8     8     9   ar
     9     9    10   ar
    10    10    11   ar
    11    11    12   ar
    12    12    13   ar
    13    13    14   ar
    14    14    15   ar
    15    15    16   ar
    16    16    17    1
    17    17    18    2
    18    18    19    1
    19    19    20    1
    20    20    21   ar
    21    21    22   ar
    22    22    23    2
    23     6    24    1
    24    24    25   ar
    25    25    26   ar
    26    26    27   ar
    27    27    28   ar
    28    28    29   ar
    29    29    30   ar
    30    30    31   ar
    31    31    32   ar
    32    23     1    1
    33    32    24   ar
    34    22     3   ar
    35    32    28   ar
    36     9     4   ar
    37    21    10   ar
    38    15    11   ar
    39    20    16   ar
    40     1    33    1
    41     1    34    1
    42     2    35    1
    43     5    36    1
    44     7    37    1
    45     8    38    1
    46    12    39    1
    47    14    40    1
    48    17    41    1
    49    18    42    1
    50    19    43    1
    51    19    44    1
    52    23    45    1
    53    25    46    1
    54    26    47    1
    55    27    48    1
    56    29    49    1
    57    31    50    1
