@<TRIPOS>MOLECULE
*****
 46 53 0 0 0
SMALL
GASTEIGER

@<TRIPOS>ATOM
      1 C           0.3030   -4.2875    0.1174 C.3     1  UNL1       -0.0148
      2 C          -0.7620   -3.2379    0.2094 C.2     1  UNL1       -0.0719
      3 C          -0.2108   -2.0170    0.0943 C.ar    1  UNL1       -0.0135
      4 C          -0.8467   -0.6920    0.1194 C.ar    1  UNL1       -0.0093
      5 C          -2.2379   -0.5518    0.2941 C.ar    1  UNL1       -0.0456
      6 C          -2.8591    0.7043    0.3161 C.ar    1  UNL1       -0.0137
      7 C          -2.0397    1.8268    0.1597 C.ar    1  UNL1       -0.0533
      8 C          -0.6534    1.7016   -0.0130 C.ar    1  UNL1       -0.0529
      9 C          -0.0133    0.4481   -0.0368 C.ar    1  UNL1       -0.0095
     10 C           1.4776    0.3033   -0.2176 C.ar    1  UNL1       -0.0089
     11 C           2.3278    1.4147   -0.3709 C.ar    1  UNL1       -0.0436
     12 C           3.7254    1.2695   -0.5386 C.ar    1  UNL1        0.0109
     13 C           4.6105    2.3909   -0.6966 C.ar    1  UNL1        0.1076
     14 N           4.2701    3.6933   -0.7095 N.ar    1  UNL1       -0.1902
     15 S           5.6748    4.5510   -0.9217 S.2     1  UNL1        0.1165
     16 N           6.7833    3.3189   -1.0067 N.ar    1  UNL1       -0.1908
     17 C           6.0921    2.1769   -0.8720 C.ar    1  UNL1        0.1005
     18 C           6.6436    0.8770   -0.8852 C.ar    1  UNL1       -0.0329
     19 C           5.7324   -0.1840   -0.7263 C.ar    1  UNL1       -0.0519
     20 C           4.3292   -0.0125   -0.5588 C.ar    1  UNL1       -0.0151
     21 C           3.4876   -1.1198   -0.4064 C.ar    1  UNL1       -0.0456
     22 C           2.0933   -0.9803   -0.2388 C.ar    1  UNL1       -0.0093
     23 C           1.2270   -2.1587   -0.0805 C.ar    1  UNL1       -0.0135
     24 C           1.5428   -3.4658   -0.0688 C.2     1  UNL1       -0.0719
     25 C          -4.3025    0.8470    0.5144 C.ar    1  UNL1        0.0284
     26 C          -4.8868    1.7309    1.4371 C.ar    1  UNL1        0.0375
     27 N          -6.2212    1.9430    1.6914 N.ar    1  UNL1       -0.2604
     28 C          -7.1748    1.2489    1.0084 C.ar    1  UNL1        0.0557
     29 C          -6.7511    0.3169    0.0421 C.ar    1  UNL1        0.1185
     30 N          -7.5428   -0.4515   -0.7237 N.ar    1  UNL1       -0.1892
     31 S          -6.5335   -1.3469   -1.6885 S.2     1  UNL1        0.1165
     32 N          -5.0543   -0.8090   -1.1711 N.ar    1  UNL1       -0.1901
     33 C          -5.2773    0.1098   -0.2122 C.ar    1  UNL1        0.1105
     34 H           0.3553   -4.8791    1.0359 H       1  UNL1        0.0350
     35 H           0.1345   -4.9475   -0.7386 H       1  UNL1        0.0350
     36 H          -1.8072   -3.4676    0.3439 H       1  UNL1        0.0581
     37 H          -2.8518   -1.4411    0.4190 H       1  UNL1        0.0630
     38 H          -2.4687    2.8278    0.1547 H       1  UNL1        0.0624
     39 H          -0.0964    2.6261   -0.1318 H       1  UNL1        0.0624
     40 H           1.9353    2.4273   -0.3654 H       1  UNL1        0.0631
     41 H           7.7069    0.7119   -1.0107 H       1  UNL1        0.0640
     42 H           6.1421   -1.1960   -0.7342 H       1  UNL1        0.0624
     43 H           3.9258   -2.1152   -0.4183 H       1  UNL1        0.0630
     44 H           2.5242   -3.8990   -0.1764 H       1  UNL1        0.0581
     45 H          -4.2413    2.3461    2.0667 H       1  UNL1        0.0836
     46 H          -8.2121    1.4483    1.2416 H       1  UNL1        0.0852
@<TRIPOS>BOND
     1     1     2    1
     2     2     3    2
     3     3     4   ar
     4     4     5   ar
     5     5     6   ar
     6     6     7   ar
     7     7     8   ar
     8     8     9   ar
     9     9    10   ar
    10    10    11   ar
    11    11    12   ar
    12    12    13   ar
    13    13    14   ar
    14    14    15   ar
    15    15    16   ar
    16    16    17   ar
    17    17    18   ar
    18    18    19   ar
    19    19    20   ar
    20    20    21   ar
    21    21    22   ar
    22    22    23   ar
    23    23    24    2
    24     6    25    1
    25    25    26   ar
    26    26    27   ar
    27    27    28   ar
    28    28    29   ar
    29    29    30   ar
    30    30    31   ar
    31    31    32   ar
    32    32    33   ar
    33    24     1    1
    34    33    25   ar
    35    23     3   ar
    36    33    29   ar
    37     9     4   ar
    38    22    10   ar
    39    20    12   ar
    40    17    13   ar
    41     1    34    1
    42     1    35    1
    43     2    36    1
    44     5    37    1
    45     7    38    1
    46     8    39    1
    47    11    40    1
    48    18    41    1
    49    19    42    1
    50    21    43    1
    51    24    44    1
    52    26    45    1
    53    28    46    1
