@<TRIPOS>MOLECULE
*****
 43 48 0 0 0
SMALL
GASTEIGER

@<TRIPOS>ATOM
      1 C          -1.3749   -3.5494   -0.7378 C.3     1  UNL1       -0.0148
      2 C          -0.0902   -2.7946   -0.6271 C.2     1  UNL1       -0.0719
      3 C          -0.3412   -1.5097   -0.3198 C.ar    1  UNL1       -0.0135
      4 C           0.6066   -0.4067   -0.1129 C.ar    1  UNL1       -0.0093
      5 C           1.9996   -0.6064   -0.2269 C.ar    1  UNL1       -0.0460
      6 C           2.9176    0.4326   -0.0334 C.ar    1  UNL1       -0.0209
      7 C           2.3987    1.6891    0.2799 C.ar    1  UNL1       -0.0537
      8 C           1.0158    1.9009    0.3961 C.ar    1  UNL1       -0.0529
      9 C           0.0773    0.8688    0.2056 C.ar    1  UNL1       -0.0095
     10 C          -1.4130    1.0899    0.3294 C.ar    1  UNL1       -0.0093
     11 C          -1.9411    2.3716    0.6499 C.ar    1  UNL1       -0.0529
     12 C          -3.3114    2.6150    0.7730 C.ar    1  UNL1       -0.0537
     13 C          -4.1772    1.5649    0.5741 C.ar    1  UNL1       -0.0212
     14 C          -5.6272    1.5701    0.6464 C.2     1  UNL1       -0.0579
     15 C          -6.0458    0.3255    0.3809 C.2     1  UNL1       -0.0791
     16 C          -4.9034   -0.6200    0.1077 C.3     1  UNL1       -0.0080
     17 C          -3.7098    0.2804    0.2560 C.ar    1  UNL1       -0.0282
     18 C          -2.3406    0.0144    0.1278 C.ar    1  UNL1       -0.0059
     19 C          -1.7825   -1.3107   -0.2038 C.ar    1  UNL1       -0.0132
     20 C          -2.3894   -2.4874   -0.4444 C.2     1  UNL1       -0.0719
     21 C           4.3691    0.2203   -0.1532 C.2     1  UNL1       -0.0365
     22 C           5.0249   -0.9195   -0.4427 C.2     1  UNL1       -0.0580
     23 C           6.4457   -0.6835   -0.4597 C.2     1  UNL1       -0.0651
     24 C           6.6859    0.6036   -0.1812 C.2     1  UNL1       -0.0797
     25 C           5.3869    1.3212    0.0451 C.3     1  UNL1       -0.0086
     26 H          -1.4245   -4.3572   -0.0020 H       1  UNL1        0.0350
     27 H          -1.5095   -3.9573   -1.7438 H       1  UNL1        0.0350
     28 H           0.8746   -3.2512   -0.7791 H       1  UNL1        0.0581
     29 H           2.3673   -1.5972   -0.4723 H       1  UNL1        0.0630
     30 H           3.0539    2.5412    0.4431 H       1  UNL1        0.0624
     31 H           0.7080    2.9116    0.6428 H       1  UNL1        0.0624
     32 H          -1.2911    3.2248    0.8142 H       1  UNL1        0.0624
     33 H          -3.6761    3.6067    1.0188 H       1  UNL1        0.0624
     34 H          -6.2321    2.4325    0.8742 H       1  UNL1        0.0621
     35 H          -7.0818    0.0184    0.3611 H       1  UNL1        0.0575
     36 H          -4.8975   -1.4216    0.8518 H       1  UNL1        0.0356
     37 H          -4.9837   -1.0171   -0.9083 H       1  UNL1        0.0356
     38 H          -3.4434   -2.7012   -0.4421 H       1  UNL1        0.0581
     39 H           4.5995   -1.8910   -0.6407 H       1  UNL1        0.0620
     40 H           7.1849   -1.4422   -0.6675 H       1  UNL1        0.0615
     41 H           7.6596    1.0657   -0.1251 H       1  UNL1        0.0575
     42 H           5.3492    1.7300    1.0600 H       1  UNL1        0.0356
     43 H           5.2625    2.1247   -0.6881 H       1  UNL1        0.0356
@<TRIPOS>BOND
     1     1     2    1
     2     2     3    2
     3     3     4   ar
     4     4     5   ar
     5     5     6   ar
     6     6     7   ar
     7     7     8   ar
     8     8     9   ar
     9     9    10   ar
    10    10    11   ar
    11    11    12   ar
    12    12    13   ar
    13    13    14    1
    14    14    15    2
    15    15    16    1
    16    16    17    1
    17    17    18   ar
    18    18    19   ar
    19    19    20    2
    20     6    21    1
    21    21    22    2
    22    22    23    1
    23    23    24    2
    24    24    25    1
    25    20     1    1
    26    25    21    1
    27    19     3   ar
    28     9     4   ar
    29    18    10   ar
    30    17    13   ar
    31     1    26    1
    32     1    27    1
    33     2    28    1
    34     5    29    1
    35     7    30    1
    36     8    31    1
    37    11    32    1
    38    12    33    1
    39    14    34    1
    40    15    35    1
    41    16    36    1
    42    16    37    1
    43    20    38    1
    44    22    39    1
    45    23    40    1
    46    24    41    1
    47    25    42    1
    48    25    43    1
