@<TRIPOS>MOLECULE
*****
 43 49 0 0 0
SMALL
GASTEIGER

@<TRIPOS>ATOM
      1 C          -1.4006   -3.7069    0.1836 C.3     1  UNL1       -0.0148
      2 C          -0.1676   -2.8610    0.1807 C.2     1  UNL1       -0.0719
      3 C          -0.5070   -1.5610    0.1281 C.ar    1  UNL1       -0.0134
      4 C           0.3637   -0.3804    0.1081 C.ar    1  UNL1       -0.0092
      5 C           1.7682   -0.4979    0.1399 C.ar    1  UNL1       -0.0442
      6 C           2.6185    0.6201    0.1183 C.ar    1  UNL1        0.0031
      7 C           2.0007    1.8735    0.0834 C.ar    1  UNL1       -0.0519
      8 C           0.6030    2.0060    0.0503 C.ar    1  UNL1       -0.0528
      9 C          -0.2565    0.8908    0.0569 C.ar    1  UNL1       -0.0080
     10 C          -1.7544    1.0205    0.0166 C.ar    1  UNL1        0.0106
     11 C          -2.3897    2.2579   -0.0425 C.ar    1  UNL1        0.0367
     12 N          -3.7247    2.4530   -0.0810 N.ar    1  UNL1       -0.2528
     13 C          -4.5087    1.3686   -0.0621 C.ar    1  UNL1        0.0898
     14 C          -5.8792    1.5728   -0.1018 C.ar    1  UNL1       -0.0328
     15 C          -6.7688    0.5069   -0.0867 C.ar    1  UNL1       -0.0415
     16 C          -6.2374   -0.7591   -0.0309 C.ar    1  UNL1        0.0284
     17 N          -4.9115   -1.0024    0.0090 N.ar    1  UNL1       -0.2528
     18 C          -4.0341    0.0416   -0.0054 C.ar    1  UNL1        0.0974
     19 C          -2.6248   -0.1110    0.0337 C.ar    1  UNL1        0.0190
     20 C          -1.9613   -1.4384    0.0931 C.ar    1  UNL1       -0.0113
     21 C          -2.4845   -2.6779    0.1248 C.2     1  UNL1       -0.0719
     22 C           4.0765    0.4434    0.1569 C.ar    1  UNL1        0.0990
     23 N           4.5732   -0.6768    0.7937 N.ar    1  UNL1       -0.2527
     24 C           5.9159   -0.9282    0.8818 C.ar    1  UNL1        0.0304
     25 C           6.9496   -0.1559    0.3703 C.ar    1  UNL1       -0.0153
     26 C           6.5044    0.9941   -0.3054 C.ar    1  UNL1        0.1034
     27 N           7.3037    1.8964   -0.8963 N.ar    1  UNL1       -0.1907
     28 S           6.3096    3.0430   -1.5631 S.2     1  UNL1        0.1165
     29 N           4.8239    2.4549   -1.1248 N.ar    1  UNL1       -0.1886
     30 C           5.0352    1.3211   -0.4287 C.ar    1  UNL1        0.1257
     31 H          -1.4698   -4.3029    1.0982 H       1  UNL1        0.0350
     32 H          -1.4316   -4.3649   -0.6896 H       1  UNL1        0.0350
     33 H           0.8287   -3.2722    0.2185 H       1  UNL1        0.0581
     34 H           2.2216   -1.4867    0.1803 H       1  UNL1        0.0630
     35 H           2.5935    2.7864    0.0929 H       1  UNL1        0.0624
     36 H           0.2218    3.0224    0.0225 H       1  UNL1        0.0624
     37 H          -1.8402    3.1931   -0.0638 H       1  UNL1        0.0836
     38 H          -6.2603    2.5902   -0.1457 H       1  UNL1        0.0640
     39 H          -7.8399    0.6669   -0.1177 H       1  UNL1        0.0633
     40 H          -6.8731   -1.6396   -0.0162 H       1  UNL1        0.0830
     41 H          -3.5305   -2.9407    0.1121 H       1  UNL1        0.0581
     42 H           6.1511   -1.8461    1.4209 H       1  UNL1        0.0830
     43 H           7.9934   -0.4138    0.4745 H       1  UNL1        0.0655
@<TRIPOS>BOND
     1     1     2    1
     2     2     3    2
     3     3     4   ar
     4     4     5   ar
     5     5     6   ar
     6     6     7   ar
     7     7     8   ar
     8     8     9   ar
     9     9    10   ar
    10    10    11   ar
    11    11    12   ar
    12    12    13   ar
    13    13    14   ar
    14    14    15   ar
    15    15    16   ar
    16    16    17   ar
    17    17    18   ar
    18    18    19   ar
    19    19    20   ar
    20    20    21    2
    21     6    22    1
    22    22    23   ar
    23    23    24   ar
    24    24    25   ar
    25    25    26   ar
    26    26    27   ar
    27    27    28   ar
    28    28    29   ar
    29    29    30   ar
    30    21     1    1
    31    30    22   ar
    32    20     3   ar
    33    30    26   ar
    34     9     4   ar
    35    19    10   ar
    36    18    13   ar
    37     1    31    1
    38     1    32    1
    39     2    33    1
    40     5    34    1
    41     7    35    1
    42     8    36    1
    43    11    37    1
    44    14    38    1
    45    15    39    1
    46    16    40    1
    47    21    41    1
    48    24    42    1
    49    25    43    1
