@<TRIPOS>MOLECULE
*****
 47 53 0 0 0
SMALL
GASTEIGER

@<TRIPOS>ATOM
      1 C           0.0962    3.1928    2.7197 C.3     1  UNL1        0.0000
      2 C          -1.0690    2.4623    2.1316 C.2     1  UNL1        0.0000
      3 C          -0.6221    1.5470    1.2566 C.ar    1  UNL1        0.0000
      4 C          -1.3508    0.5303    0.5142 C.ar    1  UNL1        0.0000
      5 C          -2.7500    0.4898    0.4390 C.ar    1  UNL1        0.0000
      6 C          -3.3850   -0.4992   -0.3098 C.ar    1  UNL1        0.0000
      7 C          -2.5603   -1.4002   -0.9700 C.ar    1  UNL1        0.0000
      8 N          -1.2061   -1.3931   -0.9136 N.ar    1  UNL1        0.0000
      9 C          -0.5932   -0.4425   -0.1615 C.ar    1  UNL1        0.0000
     10 C           0.9332   -0.4280   -0.1663 C.ar    1  UNL1        0.0000
     11 C           1.5944    0.6847    0.3026 C.ar    1  UNL1        0.0000
     12 C           3.0577    0.8929   -0.0366 C.ar    1  UNL1        0.0000
     13 C           3.6255    2.1829   -0.0228 C.ar    1  UNL1        0.0000
     14 C           4.9753    2.4019   -0.3119 C.ar    1  UNL1        0.0000
     15 C           5.7878    1.3351   -0.6627 C.ar    1  UNL1        0.0000
     16 C           5.2380    0.0598   -0.7658 C.ar    1  UNL1        0.0000
     17 C           3.8777   -0.1669   -0.4829 C.ar    1  UNL1        0.0000
     18 C           3.2325   -1.4652   -0.7297 C.ar    1  UNL1        0.0000
     19 C           3.8710   -2.6043   -1.0743 C.2     1  UNL1        0.0000
     20 SI          2.6742   -4.0042   -1.3337 Si      1  UNL1        0.0000
     21 C           1.3135   -2.8238   -0.8877 C.2     1  UNL1        0.0000
     22 C           1.7576   -1.5733   -0.6283 C.ar    1  UNL1        0.0000
     23 C           0.8280    1.6085    1.1574 C.ar    1  UNL1        0.0000
     24 C           1.2569    2.5297    2.0407 C.2     1  UNL1        0.0000
     25 C          -4.8434   -0.5628   -0.3990 C.ar    1  UNL1        0.0000
     26 C          -5.7894    0.4505   -0.3996 C.ar    1  UNL1        0.0000
     27 C          -7.0728   -0.1384   -0.4952 C.ar    1  UNL1        0.0000
     28 C          -6.8913   -1.4998   -0.5399 C.ar    1  UNL1        0.0000
     29 N          -5.5454   -1.7484   -0.4774 N.ar    1  UNL1        0.0000
     30 H           0.0572    4.2609    2.4873 H       1  UNL1        0.0000
     31 H           0.1423    3.0513    3.8035 H       1  UNL1        0.0000
     32 H          -2.0923    2.6304    2.4284 H       1  UNL1        0.0000
     33 H          -3.3452    1.2297    0.9657 H       1  UNL1        0.0000
     34 H          -2.9679   -2.1806   -1.6064 H       1  UNL1        0.0000
     35 H           3.0165    3.0583    0.1836 H       1  UNL1        0.0000
     36 H           5.3814    3.4094   -0.2768 H       1  UNL1        0.0000
     37 H           6.8368    1.4976   -0.8944 H       1  UNL1        0.0000
     38 H           5.8816   -0.7476   -1.1014 H       1  UNL1        0.0000
     39 H           4.9269   -2.7659   -1.2090 H       1  UNL1        0.0000
     40 H           2.6233   -4.4499   -2.7475 H       1  UNL1        0.0000
     41 H           2.8503   -5.0876   -0.3358 H       1  UNL1        0.0000
     42 H           0.3029   -3.1908   -0.8326 H       1  UNL1        0.0000
     43 H           2.2809    2.7628    2.2879 H       1  UNL1        0.0000
     44 H          -5.5776    1.5112   -0.3490 H       1  UNL1        0.0000
     45 H          -8.0244    0.3766   -0.5254 H       1  UNL1        0.0000
     46 H          -7.6019   -2.3128   -0.6064 H       1  UNL1        0.0000
     47 H          -5.1314   -2.6710   -0.4649 H       1  UNL1        0.0000
@<TRIPOS>BOND
     1     1     2    1
     2     2     3    2
     3     3     4   ar
     4     4     5   ar
     5     5     6   ar
     6     6     7   ar
     7     7     8   ar
     8     8     9   ar
     9     9    10   ar
    10    10    11   ar
    11    11    12   ar
    12    12    13   ar
    13    13    14   ar
    14    14    15   ar
    15    15    16   ar
    16    16    17   ar
    17    17    18   ar
    18    18    19    2
    19    19    20    1
    20    20    21    1
    21    21    22    2
    22    11    23   ar
    23    23    24    2
    24     6    25    1
    25    25    26   ar
    26    26    27   ar
    27    27    28   ar
    28    28    29   ar
    29    24     1    1
    30    29    25   ar
    31    23     3   ar
    32     9     4   ar
    33    22    10   ar
    34    17    12   ar
    35    22    18   ar
    36     1    30    1
    37     1    31    1
    38     2    32    1
    39     5    33    1
    40     7    34    1
    41    13    35    1
    42    14    36    1
    43    15    37    1
    44    16    38    1
    45    19    39    1
    46    20    40    1
    47    20    41    1
    48    21    42    1
    49    24    43    1
    50    26    44    1
    51    27    45    1
    52    28    46    1
    53    29    47    1
