@<TRIPOS>MOLECULE
*****
 44 50 0 0 0
SMALL
GASTEIGER

@<TRIPOS>ATOM
      1 SI          1.7732   -4.1049    0.1001 Si      1  UNL1        0.0000
      2 C           2.7857   -2.5433    0.0537 C.2     1  UNL1        0.0000
      3 C           2.0098   -1.4409    0.1304 C.ar    1  UNL1        0.0000
      4 C           2.5026   -0.0593    0.1159 C.ar    1  UNL1        0.0000
      5 C           1.5934    0.9408    0.1718 C.ar    1  UNL1        0.0000
      6 C           0.1340    0.7033    0.2538 C.ar    1  UNL1        0.0000
      7 C          -0.7355    1.7991    0.3087 C.ar    1  UNL1        0.0000
      8 C          -2.1118    1.6489    0.3925 C.ar    1  UNL1        0.0000
      9 N          -2.8464    2.7666    0.4402 N.ar    1  UNL1        0.0000
     10 C          -4.1870    2.6402    0.5219 C.ar    1  UNL1        0.0000
     11 C          -4.8679    1.4303    0.5611 C.ar    1  UNL1        0.0000
     12 C          -6.2722    1.3884    0.6470 C.ar    1  UNL1        0.0000
     13 C          -6.9451    0.1710    0.6857 C.ar    1  UNL1        0.0000
     14 C          -6.2212   -1.0119    0.6390 C.ar    1  UNL1        0.0000
     15 C          -4.8253   -0.9754    0.5535 C.ar    1  UNL1        0.0000
     16 C          -4.1039    0.2455    0.5118 C.ar    1  UNL1        0.0000
     17 C          -2.6736    0.3522    0.4244 C.ar    1  UNL1        0.0000
     18 C          -1.7879   -0.7564    0.3678 C.ar    1  UNL1        0.0000
     19 C          -0.3980   -0.5971    0.2830 C.ar    1  UNL1        0.0000
     20 C           0.5553   -1.7264    0.2182 C.ar    1  UNL1        0.0000
     21 C           0.2405   -3.0391    0.2192 C.2     1  UNL1        0.0000
     22 C           3.8710    0.3205    0.0623 C.ar    1  UNL1        0.0000
     23 S           4.9981    0.1524    1.3731 S.2     1  UNL1        0.0000
     24 C           6.3237    0.8249    0.4631 C.ar    1  UNL1        0.0000
     25 C           5.8594    1.1397   -0.7645 C.ar    1  UNL1        0.0000
     26 C           6.2989    1.6890   -1.9788 C.ar    1  UNL1        0.0000
     27 C           5.1679    1.6861   -2.8060 C.ar    1  UNL1        0.0000
     28 O           4.0293    1.1741   -2.2109 O.2     1  UNL1        0.0000
     29 C           4.5302    0.8666   -0.9812 C.ar    1  UNL1        0.0000
     30 H           1.9989   -4.9000    1.3310 H       1  UNL1        0.0000
     31 H           1.8293   -4.8660   -1.1710 H       1  UNL1        0.0000
     32 H           3.8601   -2.5838   -0.0286 H       1  UNL1        0.0000
     33 H           1.9120    1.9805    0.1638 H       1  UNL1        0.0000
     34 H          -0.3356    2.8110    0.2861 H       1  UNL1        0.0000
     35 H          -4.7197    3.5876    0.5565 H       1  UNL1        0.0000
     36 H          -6.8503    2.3096    0.6842 H       1  UNL1        0.0000
     37 H          -8.0296    0.1470    0.7520 H       1  UNL1        0.0000
     38 H          -6.7377   -1.9682    0.6686 H       1  UNL1        0.0000
     39 H          -4.3078   -1.9302    0.5198 H       1  UNL1        0.0000
     40 H          -2.1914   -1.7624    0.3900 H       1  UNL1        0.0000
     41 H          -0.7331   -3.4962    0.2699 H       1  UNL1        0.0000
     42 H           7.3078    0.9308    0.8966 H       1  UNL1        0.0000
     43 H           7.2827    2.0448   -2.2484 H       1  UNL1        0.0000
     44 H           5.0171    2.0108   -3.8274 H       1  UNL1        0.0000
@<TRIPOS>BOND
     1     1     2    1
     2     2     3    2
     3     3     4   ar
     4     4     5   ar
     5     5     6   ar
     6     6     7   ar
     7     7     8   ar
     8     8     9   ar
     9     9    10   ar
    10    10    11   ar
    11    11    12   ar
    12    12    13   ar
    13    13    14   ar
    14    14    15   ar
    15    15    16   ar
    16    16    17   ar
    17    17    18   ar
    18    18    19   ar
    19    19    20   ar
    20    20    21    2
    21     4    22    1
    22    22    23   ar
    23    23    24   ar
    24    24    25   ar
    25    25    26   ar
    26    26    27   ar
    27    27    28   ar
    28    28    29   ar
    29    21     1    1
    30    29    22   ar
    31    20     3   ar
    32    29    25   ar
    33    19     6   ar
    34    17     8   ar
    35    16    11   ar
    36     1    30    1
    37     1    31    1
    38     2    32    1
    39     5    33    1
    40     7    34    1
    41    10    35    1
    42    12    36    1
    43    13    37    1
    44    14    38    1
    45    15    39    1
    46    18    40    1
    47    21    41    1
    48    24    42    1
    49    26    43    1
    50    27    44    1
