@<TRIPOS>MOLECULE
*****
 49 56 0 0 0
SMALL
GASTEIGER

@<TRIPOS>ATOM
      1 C          -1.8861   -2.5659   -3.0486 C.3     1  UNL1        0.0000
      2 C          -0.5733   -2.2854   -2.3929 C.2     1  UNL1        0.0000
      3 C          -0.7509   -1.4326   -1.3694 C.ar    1  UNL1        0.0000
      4 C           0.2520   -0.8858   -0.4526 C.ar    1  UNL1        0.0000
      5 C           1.6161   -1.1997   -0.5388 C.ar    1  UNL1        0.0000
      6 C           2.5237   -0.6449    0.3631 C.ar    1  UNL1        0.0000
      7 C           2.0080    0.2132    1.3228 C.ar    1  UNL1        0.0000
      8 N           0.6989    0.5428    1.4334 N.ar    1  UNL1        0.0000
      9 C          -0.1818   -0.0023    0.5539 C.ar    1  UNL1        0.0000
     10 C          -1.6141    0.3670    0.6865 C.ar    1  UNL1        0.0000
     11 C          -2.1546    1.2444    1.6645 C.ar    1  UNL1        0.0000
     12 C          -1.5211    1.9284    2.6768 C.ar    1  UNL1        0.0000
     13 N          -2.4679    2.6535    3.3690 N.ar    1  UNL1        0.0000
     14 C          -3.7135    2.4528    2.8218 C.ar    1  UNL1        0.0000
     15 C          -3.5430    1.5883    1.7720 C.ar    1  UNL1        0.0000
     16 C          -4.5136    1.0977    0.9271 C.ar    1  UNL1        0.0000
     17 C          -5.9349    1.3067    0.8571 C.2     1  UNL1        0.0000
     18 C          -6.3613    0.5642   -0.1755 C.2     1  UNL1        0.0000
     19 C          -5.2429   -0.1931   -0.8647 C.3     1  UNL1        0.0000
     20 C          -4.0310    0.2178   -0.0656 C.ar    1  UNL1        0.0000
     21 C          -2.6509   -0.1519   -0.2072 C.ar    1  UNL1        0.0000
     22 C          -2.1678   -1.0818   -1.2601 C.ar    1  UNL1        0.0000
     23 C          -2.8300   -1.7361   -2.2319 C.2     1  UNL1        0.0000
     24 C           3.9545   -0.9321    0.2992 C.ar    1  UNL1        0.0000
     25 S           4.5032   -2.5757    0.4101 S.2     1  UNL1        0.0000
     26 C           6.1675   -2.1347    0.3054 C.ar    1  UNL1        0.0000
     27 C           6.2695   -0.7835    0.1895 C.ar    1  UNL1        0.0000
     28 SI          7.6742    0.4599    0.0245 Si      1  UNL1        0.0000
     29 C           6.3564    1.8441   -0.0485 C.2     1  UNL1        0.0000
     30 C           5.1052    1.3425    0.0462 C.2     1  UNL1        0.0000
     31 C           5.0320   -0.0842    0.1819 C.ar    1  UNL1        0.0000
     32 H          -2.1405   -3.6280   -2.9879 H       1  UNL1        0.0000
     33 H          -1.8830   -2.2458   -4.0946 H       1  UNL1        0.0000
     34 H           0.3567   -2.7227   -2.7209 H       1  UNL1        0.0000
     35 H           1.9784   -1.8693   -1.3132 H       1  UNL1        0.0000
     36 H           2.6515    0.6781    2.0655 H       1  UNL1        0.0000
     37 H          -0.4860    1.9770    2.9841 H       1  UNL1        0.0000
     38 H          -2.2699    3.2455    4.1648 H       1  UNL1        0.0000
     39 H          -4.5864    2.9407    3.2325 H       1  UNL1        0.0000
     40 H          -6.5145    1.9350    1.5112 H       1  UNL1        0.0000
     41 H          -7.3917    0.5008   -0.4958 H       1  UNL1        0.0000
     42 H          -5.1640    0.1316   -1.9061 H       1  UNL1        0.0000
     43 H          -5.4250   -1.2689   -0.7902 H       1  UNL1        0.0000
     44 H          -3.8832   -1.7139   -2.4477 H       1  UNL1        0.0000
     45 H           6.9414   -2.8898    0.3354 H       1  UNL1        0.0000
     46 H           8.4181    0.3647   -1.2560 H       1  UNL1        0.0000
     47 H           8.5130    0.5883    1.2418 H       1  UNL1        0.0000
     48 H           6.6443    2.8770   -0.1609 H       1  UNL1        0.0000
     49 H           4.2185    1.9661    0.0127 H       1  UNL1        0.0000
@<TRIPOS>BOND
     1     1     2    1
     2     2     3    2
     3     3     4   ar
     4     4     5   ar
     5     5     6   ar
     6     6     7   ar
     7     7     8   ar
     8     8     9   ar
     9     9    10   ar
    10    10    11   ar
    11    11    12   ar
    12    12    13   ar
    13    13    14   ar
    14    14    15   ar
    15    15    16   ar
    16    16    17    1
    17    17    18    2
    18    18    19    1
    19    19    20    1
    20    20    21   ar
    21    21    22   ar
    22    22    23    2
    23     6    24    1
    24    24    25   ar
    25    25    26   ar
    26    26    27   ar
    27    27    28    1
    28    28    29    1
    29    29    30    2
    30    30    31    1
    31    23     1    1
    32    31    24   ar
    33    22     3   ar
    34    31    27   ar
    35     9     4   ar
    36    21    10   ar
    37    15    11   ar
    38    20    16   ar
    39     1    32    1
    40     1    33    1
    41     2    34    1
    42     5    35    1
    43     7    36    1
    44    12    37    1
    45    13    38    1
    46    14    39    1
    47    17    40    1
    48    18    41    1
    49    19    42    1
    50    19    43    1
    51    23    44    1
    52    26    45    1
    53    28    46    1
    54    28    47    1
    55    29    48    1
    56    30    49    1
