@<TRIPOS>MOLECULE
*****
 46 53 0 0 0
SMALL
GASTEIGER

@<TRIPOS>ATOM
      1 C          -0.3767    2.5156    3.2743 C.3     1  UNL1       -0.0148
      2 C           0.5864    1.6842    2.4819 C.2     1  UNL1       -0.0719
      3 C          -0.0789    0.9910    1.5420 C.ar    1  UNL1       -0.0119
      4 C           0.4336    0.0517    0.5358 C.ar    1  UNL1        0.0090
      5 C           1.7928   -0.2727    0.4232 C.ar    1  UNL1       -0.0422
      6 C           2.2306   -1.1734   -0.5501 C.ar    1  UNL1        0.0095
      7 C           1.2528   -1.7051   -1.3831 C.ar    1  UNL1        0.0366
      8 N          -0.0709   -1.4205   -1.3053 N.ar    1  UNL1       -0.2537
      9 C          -0.4855   -0.5481   -0.3523 C.ar    1  UNL1        0.0800
     10 C          -1.9372   -0.2441   -0.2734 C.ar    1  UNL1        0.0213
     11 C          -2.9612   -0.7716   -1.0923 C.ar    1  UNL1        0.0100
     12 C          -2.8547   -1.6713   -2.1335 C.ar    1  UNL1        0.0101
     13 N          -4.1158   -1.9088   -2.6558 N.ar    1  UNL1       -0.3659
     14 C          -5.0605   -1.1761   -1.9721 C.ar    1  UNL1        0.0101
     15 C          -4.3443   -0.4977   -1.0342 C.ar    1  UNL1        0.0108
     16 C          -4.8015    0.4070   -0.0539 C.ar    1  UNL1        0.0299
     17 C          -6.0727    0.8750    0.2550 C.ar    1  UNL1       -0.0155
     18 C          -5.8487    1.7337    1.3117 C.ar    1  UNL1        0.0932
     19 O          -4.5214    1.7930    1.6360 O.2     1  UNL1       -0.4623
     20 C          -3.8476    0.9555    0.7764 C.ar    1  UNL1        0.1437
     21 C          -2.4611    0.6751    0.7111 C.ar    1  UNL1        0.0351
     22 C          -1.5034    1.3014    1.6333 C.ar    1  UNL1       -0.0098
     23 C          -1.6884    2.1817    2.6318 C.2     1  UNL1       -0.0718
     24 C           3.6519   -1.5203   -0.6810 C.ar    1  UNL1        0.0482
     25 S           4.1157   -3.1691   -0.9321 S.2     1  UNL1       -0.0923
     26 C           5.7878   -2.7978   -0.9591 C.ar    1  UNL1        0.0038
     27 C           6.0025   -1.4578   -0.7751 C.ar    1  UNL1        0.0968
     28 N           7.2471   -0.9054   -0.7548 N.ar    1  UNL1       -0.2514
     29 C           7.1723    0.4396   -0.5603 C.ar    1  UNL1        0.0464
     30 C           5.9863    1.1658   -0.3987 C.ar    1  UNL1        0.0464
     31 N           4.7329    0.6350   -0.4113 N.ar    1  UNL1       -0.2508
     32 C           4.7741   -0.7163   -0.6086 C.ar    1  UNL1        0.1039
     33 H          -0.1499    3.5814    3.1785 H       1  UNL1        0.0350
     34 H          -0.3697    2.2295    4.3301 H       1  UNL1        0.0350
     35 H           1.6492    1.6710    2.6657 H       1  UNL1        0.0581
     36 H           2.5163    0.1776    1.0973 H       1  UNL1        0.0631
     37 H           1.5032   -2.3989   -2.1816 H       1  UNL1        0.0836
     38 H          -2.0040   -2.1777   -2.5681 H       1  UNL1        0.0813
     39 H          -4.3077   -2.5325   -3.4288 H       1  UNL1        0.1648
     40 H          -6.1099   -1.2211   -2.2263 H       1  UNL1        0.0813
     41 H          -7.0224    0.6420   -0.2020 H       1  UNL1        0.0655
     42 H          -6.4954    2.3524    1.9183 H       1  UNL1        0.1030
     43 H          -2.6270    2.6075    2.9509 H       1  UNL1        0.0581
     44 H           6.5268   -3.5721   -1.1053 H       1  UNL1        0.0715
     45 H           8.1312    0.9502   -0.5356 H       1  UNL1        0.0845
     46 H           6.0233    2.2415   -0.2494 H       1  UNL1        0.0845
@<TRIPOS>BOND
     1     1     2    1
     2     2     3    2
     3     3     4   ar
     4     4     5   ar
     5     5     6   ar
     6     6     7   ar
     7     7     8   ar
     8     8     9   ar
     9     9    10   ar
    10    10    11   ar
    11    11    12   ar
    12    12    13   ar
    13    13    14   ar
    14    14    15   ar
    15    15    16   ar
    16    16    17   ar
    17    17    18   ar
    18    18    19   ar
    19    19    20   ar
    20    20    21   ar
    21    21    22   ar
    22    22    23    2
    23     6    24    1
    24    24    25   ar
    25    25    26   ar
    26    26    27   ar
    27    27    28   ar
    28    28    29   ar
    29    29    30   ar
    30    30    31   ar
    31    31    32   ar
    32    23     1    1
    33    32    24   ar
    34    22     3   ar
    35    32    27   ar
    36     9     4   ar
    37    21    10   ar
    38    15    11   ar
    39    20    16   ar
    40     1    33    1
    41     1    34    1
    42     2    35    1
    43     5    36    1
    44     7    37    1
    45    12    38    1
    46    13    39    1
    47    14    40    1
    48    17    41    1
    49    18    42    1
    50    23    43    1
    51    26    44    1
    52    29    45    1
    53    30    46    1
