@<TRIPOS>MOLECULE
*****
 49 56 0 0 0
SMALL
GASTEIGER

@<TRIPOS>ATOM
      1 C          -0.7965   -4.4343   -0.3270 C.3     1  UNL1        0.0000
      2 C           0.3857   -3.5499   -0.1061 C.2     1  UNL1        0.0000
      3 C          -0.0234   -2.2751    0.0044 C.ar    1  UNL1        0.0000
      4 C           0.7786   -1.0678    0.1501 C.ar    1  UNL1        0.0000
      5 C           2.1512   -1.1012    0.4426 C.ar    1  UNL1        0.0000
      6 C           2.8599    0.0830    0.6357 C.ar    1  UNL1        0.0000
      7 C           2.1336    1.2590    0.5383 C.ar    1  UNL1        0.0000
      8 N           0.8091    1.3216    0.2561 N.ar    1  UNL1        0.0000
      9 C           0.1245    0.1707    0.0283 C.ar    1  UNL1        0.0000
     10 C          -1.3702    0.2858   -0.2263 C.ar    1  UNL1        0.0000
     11 C          -2.0130    1.5503   -0.5413 C.ar    1  UNL1        0.0000
     12 C          -1.3198    2.7142   -0.9804 C.ar    1  UNL1        0.0000
     13 C          -1.9445    3.9335   -1.2530 C.ar    1  UNL1        0.0000
     14 C          -3.3109    4.0423   -1.1113 C.ar    1  UNL1        0.0000
     15 C          -4.0406    2.9238   -0.7212 C.ar    1  UNL1        0.0000
     16 C          -3.4287    1.6716   -0.4495 C.ar    1  UNL1        0.0000
     17 C          -4.1839    0.5383   -0.0858 C.ar    1  UNL1        0.0000
     18 C          -5.6544    0.5333    0.1474 C.2     1  UNL1        0.0000
     19 C          -6.1756   -0.6531    0.4945 C.2     1  UNL1        0.0000
     20 SI         -4.8985   -1.9861    0.5748 Si      1  UNL1        0.0000
     21 C          -3.5660   -0.7361    0.0725 C.ar    1  UNL1        0.0000
     22 C          -2.1808   -0.8932   -0.0755 C.ar    1  UNL1        0.0000
     23 C          -1.4754   -2.2012   -0.0989 C.ar    1  UNL1        0.0000
     24 C          -1.9257   -3.4478   -0.3367 C.2     1  UNL1        0.0000
     25 C           4.2807    0.0847    0.9451 C.ar    1  UNL1        0.0000
     26 S           4.9345   -0.7813    2.2868 S.2     1  UNL1        0.0000
     27 C           6.5451   -0.2630    1.9631 C.ar    1  UNL1        0.0000
     28 C           6.5153    0.5253    0.8659 C.ar    1  UNL1        0.0000
     29 C           7.5169    1.2164    0.1434 C.ar    1  UNL1        0.0000
     30 C           6.9977    1.9121   -0.9544 C.ar    1  UNL1        0.0000
     31 S           5.2615    1.7886   -1.2070 S.2     1  UNL1        0.0000
     32 C           5.2734    0.7429    0.2679 C.ar    1  UNL1        0.0000
     33 H          -0.9106   -5.1606    0.4828 H       1  UNL1        0.0000
     34 H          -0.7235   -4.9570   -1.2852 H       1  UNL1        0.0000
     35 H           1.4020   -3.9110   -0.0875 H       1  UNL1        0.0000
     36 H           2.6676   -2.0528    0.5314 H       1  UNL1        0.0000
     37 H           2.5996    2.2280    0.7003 H       1  UNL1        0.0000
     38 H          -0.2479    2.6865   -1.1565 H       1  UNL1        0.0000
     39 H          -1.3530    4.7842   -1.5793 H       1  UNL1        0.0000
     40 H          -3.8139    4.9824   -1.3171 H       1  UNL1        0.0000
     41 H          -5.1169    3.0483   -0.6474 H       1  UNL1        0.0000
     42 H          -6.2595    1.4240    0.0600 H       1  UNL1        0.0000
     43 H          -7.2145   -0.8492    0.7105 H       1  UNL1        0.0000
     44 H          -5.1466   -3.0273   -0.4551 H       1  UNL1        0.0000
     45 H          -4.7151   -2.5071    1.9524 H       1  UNL1        0.0000
     46 H          -2.9292   -3.7618   -0.5629 H       1  UNL1        0.0000
     47 H           7.3756   -0.5689    2.5837 H       1  UNL1        0.0000
     48 H           8.5720    1.2219    0.3883 H       1  UNL1        0.0000
     49 H           7.5540    2.5131   -1.6611 H       1  UNL1        0.0000
@<TRIPOS>BOND
     1     1     2    1
     2     2     3    2
     3     3     4   ar
     4     4     5   ar
     5     5     6   ar
     6     6     7   ar
     7     7     8   ar
     8     8     9   ar
     9     9    10   ar
    10    10    11   ar
    11    11    12   ar
    12    12    13   ar
    13    13    14   ar
    14    14    15   ar
    15    15    16   ar
    16    16    17   ar
    17    17    18    1
    18    18    19    2
    19    19    20    1
    20    20    21    1
    21    21    22   ar
    22    22    23   ar
    23    23    24    2
    24     6    25    1
    25    25    26   ar
    26    26    27   ar
    27    27    28   ar
    28    28    29   ar
    29    29    30   ar
    30    30    31   ar
    31    31    32   ar
    32    24     1    1
    33    32    25   ar
    34    23     3   ar
    35    32    28   ar
    36     9     4   ar
    37    22    10   ar
    38    16    11   ar
    39    21    17   ar
    40     1    33    1
    41     1    34    1
    42     2    35    1
    43     5    36    1
    44     7    37    1
    45    12    38    1
    46    13    39    1
    47    14    40    1
    48    15    41    1
    49    18    42    1
    50    19    43    1
    51    20    44    1
    52    20    45    1
    53    24    46    1
    54    27    47    1
    55    29    48    1
    56    30    49    1
