@<TRIPOS>MOLECULE
*****
 44 50 0 0 0
SMALL
GASTEIGER

@<TRIPOS>ATOM
      1 C          -1.2013    0.1719   -3.6035 C.3     1  UNL1       -0.0148
      2 C           0.1094   -0.0494   -2.9182 C.2     1  UNL1       -0.0719
      3 C          -0.0769   -0.0446   -1.5877 C.ar    1  UNL1       -0.0120
      4 C           0.9302   -0.0289   -0.5305 C.ar    1  UNL1        0.0090
      5 C           2.2968   -0.2460   -0.7460 C.ar    1  UNL1       -0.0428
      6 C           3.2068   -0.1670    0.3148 C.ar    1  UNL1        0.0023
      7 C           2.6702    0.1389    1.5633 C.ar    1  UNL1        0.0360
      8 N           1.3553    0.3488    1.8136 N.ar    1  UNL1       -0.2537
      9 C           0.4882    0.2615    0.7687 C.ar    1  UNL1        0.0793
     10 C          -0.9620    0.4307    1.0931 C.ar    1  UNL1        0.0093
     11 C          -1.3478    0.7783    2.3970 C.ar    1  UNL1       -0.0514
     12 C          -2.6875    0.8598    2.7686 C.ar    1  UNL1       -0.0533
     13 C          -3.7073    0.5097    1.8866 C.ar    1  UNL1       -0.0151
     14 C          -5.0339    0.5501    2.3927 C.ar    1  UNL1       -0.0519
     15 C          -6.1647    0.1536    1.6726 C.ar    1  UNL1       -0.0329
     16 C          -5.9105   -0.3578    0.3891 C.ar    1  UNL1        0.1005
     17 N          -6.8528   -0.8521   -0.4286 N.ar    1  UNL1       -0.1908
     18 S          -6.0635   -1.4039   -1.7723 S.2     1  UNL1        0.1165
     19 N          -4.5058   -1.0180   -1.3846 N.ar    1  UNL1       -0.1901
     20 C          -4.5100   -0.4021   -0.1881 C.ar    1  UNL1        0.1081
     21 C          -3.3619    0.1135    0.5479 C.ar    1  UNL1        0.0186
     22 C          -1.9851    0.2028    0.1221 C.ar    1  UNL1        0.0014
     23 C          -1.4986    0.1160   -1.2805 C.ar    1  UNL1       -0.0127
     24 C          -2.1373    0.3288   -2.4448 C.2     1  UNL1       -0.0719
     25 C           4.6440   -0.3886    0.1227 C.ar    1  UNL1        0.0017
     26 C           5.3696   -1.2816    0.9224 C.ar    1  UNL1       -0.0511
     27 C           6.7347   -1.4686    0.7097 C.ar    1  UNL1       -0.0430
     28 C           7.3458   -0.7529   -0.3046 C.ar    1  UNL1        0.0276
     29 N           6.6931    0.1181   -1.1006 N.ar    1  UNL1       -0.2627
     30 C           5.3675    0.2783   -0.8679 C.ar    1  UNL1        0.0353
     31 H          -1.4778   -0.6824   -4.2278 H       1  UNL1        0.0350
     32 H          -1.1757    1.0812   -4.2112 H       1  UNL1        0.0350
     33 H           1.0499   -0.1067   -3.4432 H       1  UNL1        0.0581
     34 H           2.6544   -0.4905   -1.7430 H       1  UNL1        0.0631
     35 H           3.3078    0.2355    2.4394 H       1  UNL1        0.0836
     36 H          -0.5898    0.9930    3.1499 H       1  UNL1        0.0624
     37 H          -2.9103    1.1544    3.7935 H       1  UNL1        0.0624
     38 H          -5.2028    0.8965    3.4149 H       1  UNL1        0.0624
     39 H          -7.1632    0.1885    2.0901 H       1  UNL1        0.0640
     40 H          -3.1716    0.5988   -2.5800 H       1  UNL1        0.0581
     41 H           4.8758   -1.8503    1.7074 H       1  UNL1        0.0625
     42 H           7.3055   -2.1604    1.3192 H       1  UNL1        0.0633
     43 H           8.4065   -0.8651   -0.5103 H       1  UNL1        0.0829
     44 H           4.8867    0.9988   -1.5259 H       1  UNL1        0.0836
@<TRIPOS>BOND
     1     1     2    1
     2     2     3    2
     3     3     4   ar
     4     4     5   ar
     5     5     6   ar
     6     6     7   ar
     7     7     8   ar
     8     8     9   ar
     9     9    10   ar
    10    10    11   ar
    11    11    12   ar
    12    12    13   ar
    13    13    14   ar
    14    14    15   ar
    15    15    16   ar
    16    16    17   ar
    17    17    18   ar
    18    18    19   ar
    19    19    20   ar
    20    20    21   ar
    21    21    22   ar
    22    22    23   ar
    23    23    24    2
    24     6    25    1
    25    25    26   ar
    26    26    27   ar
    27    27    28   ar
    28    28    29   ar
    29    29    30   ar
    30    24     1    1
    31    30    25   ar
    32    23     3   ar
    33     9     4   ar
    34    22    10   ar
    35    21    13   ar
    36    20    16   ar
    37     1    31    1
    38     1    32    1
    39     2    33    1
    40     5    34    1
    41     7    35    1
    42    11    36    1
    43    12    37    1
    44    14    38    1
    45    15    39    1
    46    24    40    1
    47    26    41    1
    48    27    42    1
    49    28    43    1
    50    30    44    1
