@<TRIPOS>MOLECULE
*****
 48 54 0 0 0
SMALL
GASTEIGER

@<TRIPOS>ATOM
      1 C          -1.7098    0.8200    3.4167 C.3     1  UNL1       -0.0148
      2 C          -0.4779    0.4128    2.6761 C.2     1  UNL1       -0.0719
      3 C          -0.7899    0.1572    1.3946 C.ar    1  UNL1       -0.0120
      4 C           0.1134   -0.1122    0.2789 C.ar    1  UNL1        0.0090
      5 C           1.4899   -0.3242    0.4219 C.ar    1  UNL1       -0.0428
      6 C           2.2982   -0.5307   -0.7003 C.ar    1  UNL1        0.0015
      7 C           1.6574   -0.5178   -1.9346 C.ar    1  UNL1        0.0360
      8 N           0.3285   -0.3240   -2.1155 N.ar    1  UNL1       -0.2537
      9 C          -0.4403   -0.1231   -1.0100 C.ar    1  UNL1        0.0793
     10 C          -1.9090    0.0321   -1.2424 C.ar    1  UNL1        0.0092
     11 C          -2.4069    0.0404   -2.5556 C.ar    1  UNL1       -0.0514
     12 C          -3.7718    0.0982   -2.8154 C.ar    1  UNL1       -0.0534
     13 C          -4.6978    0.0810   -1.7727 C.ar    1  UNL1       -0.0173
     14 C          -6.0680    0.0652   -2.0870 C.ar    1  UNL1       -0.0540
     15 C          -7.0345   -0.0195   -1.0907 C.ar    1  UNL1       -0.0612
     16 C          -6.6371   -0.1122    0.2319 C.ar    1  UNL1       -0.0611
     17 C          -5.2757   -0.0855    0.5539 C.ar    1  UNL1       -0.0534
     18 C          -4.2557    0.0558   -0.4237 C.ar    1  UNL1       -0.0095
     19 C          -2.8424    0.1302   -0.1613 C.ar    1  UNL1       -0.0007
     20 C          -2.2301    0.3190    1.1860 C.ar    1  UNL1       -0.0128
     21 C          -2.7539    0.7687    2.3422 C.2     1  UNL1       -0.0719
     22 C           3.7289   -0.7611   -0.5874 C.ar    1  UNL1       -0.0073
     23 C           4.3963   -1.9366   -1.0307 C.ar    1  UNL1       -0.0533
     24 C           5.8141   -2.1650   -0.9139 C.ar    1  UNL1       -0.0605
     25 C           6.7227   -1.2440   -0.3466 C.ar    1  UNL1       -0.0526
     26 C           6.0562   -0.1013    0.0730 C.ar    1  UNL1       -0.0000
     27 C           6.6367    0.9973    0.6516 C.ar    1  UNL1        0.0094
     28 N           5.6258    1.9040    0.8907 N.ar    1  UNL1       -0.3659
     29 C           4.4144    1.3923    0.4718 C.ar    1  UNL1        0.0100
     30 C           4.6519    0.1362   -0.0337 C.ar    1  UNL1        0.0071
     31 H          -1.9389    0.1233    4.2280 H       1  UNL1        0.0350
     32 H          -1.6095    1.8332    3.8168 H       1  UNL1        0.0350
     33 H           0.5069    0.4109    3.1164 H       1  UNL1        0.0581
     34 H           1.9440   -0.3344    1.4092 H       1  UNL1        0.0631
     35 H           2.2173   -0.6647   -2.8555 H       1  UNL1        0.0836
     36 H          -1.7212   -0.0050   -3.4006 H       1  UNL1        0.0624
     37 H          -4.1008    0.1101   -3.8526 H       1  UNL1        0.0624
     38 H          -6.3951    0.1031   -3.1245 H       1  UNL1        0.0624
     39 H          -8.0889   -0.0397   -1.3511 H       1  UNL1        0.0618
     40 H          -7.3787   -0.2197    1.0191 H       1  UNL1        0.0618
     41 H          -5.0267   -0.2332    1.5984 H       1  UNL1        0.0624
     42 H          -3.7621    1.1017    2.5224 H       1  UNL1        0.0581
     43 H           3.8014   -2.7331   -1.4817 H       1  UNL1        0.0624
     44 H           6.2074   -3.1112   -1.2876 H       1  UNL1        0.0618
     45 H           7.7849   -1.4230   -0.2663 H       1  UNL1        0.0624
     46 H           7.6607    1.2305    0.9094 H       1  UNL1        0.0813
     47 H           5.7545    2.8185    1.3037 H       1  UNL1        0.1648
     48 H           3.5112    1.9792    0.5707 H       1  UNL1        0.0813
@<TRIPOS>BOND
     1     1     2    1
     2     2     3    2
     3     3     4   ar
     4     4     5   ar
     5     5     6   ar
     6     6     7   ar
     7     7     8   ar
     8     8     9   ar
     9     9    10   ar
    10    10    11   ar
    11    11    12   ar
    12    12    13   ar
    13    13    14   ar
    14    14    15   ar
    15    15    16   ar
    16    16    17   ar
    17    17    18   ar
    18    18    19   ar
    19    19    20   ar
    20    20    21    2
    21     6    22    1
    22    22    23   ar
    23    23    24   ar
    24    24    25   ar
    25    25    26   ar
    26    26    27   ar
    27    27    28   ar
    28    28    29   ar
    29    29    30   ar
    30    21     1    1
    31    30    22   ar
    32    20     3   ar
    33    30    26   ar
    34     9     4   ar
    35    19    10   ar
    36    18    13   ar
    37     1    31    1
    38     1    32    1
    39     2    33    1
    40     5    34    1
    41     7    35    1
    42    11    36    1
    43    12    37    1
    44    14    38    1
    45    15    39    1
    46    16    40    1
    47    17    41    1
    48    21    42    1
    49    23    43    1
    50    24    44    1
    51    25    45    1
    52    27    46    1
    53    28    47    1
    54    29    48    1
