@<TRIPOS>MOLECULE
*****
 48 54 0 0 0
SMALL
GASTEIGER

@<TRIPOS>ATOM
      1 C          -1.0239   -4.0509    0.9293 C.3     1  UNL1        0.0000
      2 C           0.2465   -3.2665    0.8326 C.2     1  UNL1        0.0000
      3 C          -0.0295   -2.0227    0.4093 C.ar    1  UNL1        0.0000
      4 C           0.8561   -0.8809    0.2027 C.ar    1  UNL1        0.0000
      5 C           2.2523   -0.9979    0.2103 C.ar    1  UNL1        0.0000
      6 C           3.0331    0.1062   -0.1138 C.ar    1  UNL1        0.0000
      7 N           2.4656    1.2868   -0.4548 N.ar    1  UNL1        0.0000
      8 C           1.1100    1.3684   -0.4562 C.ar    1  UNL1        0.0000
      9 C           0.2385    0.3507   -0.0815 C.ar    1  UNL1        0.0000
     10 C          -1.2682    0.5196   -0.1090 C.ar    1  UNL1        0.0000
     11 C          -2.0593   -0.5975   -0.2310 C.ar    1  UNL1        0.0000
     12 C          -3.4835   -0.4449   -0.7034 C.ar    1  UNL1        0.0000
     13 C          -4.1761   -1.4952   -1.3091 C.ar    1  UNL1        0.0000
     14 N          -5.4505   -1.4382   -1.7725 N.ar    1  UNL1        0.0000
     15 C          -6.0725   -0.2511   -1.6738 C.ar    1  UNL1        0.0000
     16 C          -5.4724    0.8822   -1.1590 C.ar    1  UNL1        0.0000
     17 C          -4.1572    0.7918   -0.6851 C.ar    1  UNL1        0.0000
     18 C          -3.4028    1.9626   -0.2144 C.ar    1  UNL1        0.0000
     19 C          -3.9238    3.1804    0.0446 C.2     1  UNL1        0.0000
     20 SI         -2.6329    4.3466    0.7106 Si      1  UNL1        0.0000
     21 C          -1.4103    2.9398    0.5892 C.2     1  UNL1        0.0000
     22 C          -1.9539    1.8225    0.0556 C.ar    1  UNL1        0.0000
     23 C          -1.4600   -1.8812    0.1663 C.ar    1  UNL1        0.0000
     24 C          -2.0501   -3.0434    0.5025 C.2     1  UNL1        0.0000
     25 C           4.5109    0.0750   -0.1283 C.ar    1  UNL1        0.0000
     26 C           5.2348   -1.0822   -0.4719 C.ar    1  UNL1        0.0000
     27 C           6.6341   -1.0928   -0.4733 C.ar    1  UNL1        0.0000
     28 C           7.3418    0.0566   -0.1348 C.ar    1  UNL1        0.0000
     29 C           6.6524    1.2178    0.1991 C.ar    1  UNL1        0.0000
     30 C           5.2542    1.2250    0.1987 C.ar    1  UNL1        0.0000
     31 H          -1.2033   -4.3835    1.9559 H       1  UNL1        0.0000
     32 H          -1.0123   -4.9139    0.2575 H       1  UNL1        0.0000
     33 H           1.2137   -3.6612    1.1010 H       1  UNL1        0.0000
     34 H           2.7207   -1.9424    0.4604 H       1  UNL1        0.0000
     35 H           0.7472    2.3256   -0.8181 H       1  UNL1        0.0000
     36 H          -3.7085   -2.4584   -1.4881 H       1  UNL1        0.0000
     37 H          -7.0905   -0.2251   -2.0516 H       1  UNL1        0.0000
     38 H          -6.0231    1.8148   -1.1558 H       1  UNL1        0.0000
     39 H          -4.9463    3.5053   -0.0528 H       1  UNL1        0.0000
     40 H          -2.9008    4.7486    2.1117 H       1  UNL1        0.0000
     41 H          -2.3242    5.4473   -0.2327 H       1  UNL1        0.0000
     42 H          -0.4150    3.0839    0.9760 H       1  UNL1        0.0000
     43 H          -3.1078   -3.2546    0.5318 H       1  UNL1        0.0000
     44 H           4.7171   -1.9922   -0.7660 H       1  UNL1        0.0000
     45 H           7.1692   -1.9986   -0.7470 H       1  UNL1        0.0000
     46 H           8.4284    0.0500   -0.1385 H       1  UNL1        0.0000
     47 H           7.1973    2.1219    0.4571 H       1  UNL1        0.0000
     48 H           4.7346    2.1461    0.4597 H       1  UNL1        0.0000
@<TRIPOS>BOND
     1     1     2    1
     2     2     3    2
     3     3     4   ar
     4     4     5   ar
     5     5     6   ar
     6     6     7   ar
     7     7     8   ar
     8     8     9   ar
     9     9    10   ar
    10    10    11   ar
    11    11    12   ar
    12    12    13   ar
    13    13    14   ar
    14    14    15   ar
    15    15    16   ar
    16    16    17   ar
    17    17    18   ar
    18    18    19    2
    19    19    20    1
    20    20    21    1
    21    21    22    2
    22    11    23   ar
    23    23    24    2
    24     6    25    1
    25    25    26   ar
    26    26    27   ar
    27    27    28   ar
    28    28    29   ar
    29    29    30   ar
    30    24     1    1
    31    30    25   ar
    32    23     3   ar
    33     9     4   ar
    34    22    10   ar
    35    17    12   ar
    36    22    18   ar
    37     1    31    1
    38     1    32    1
    39     2    33    1
    40     5    34    1
    41     8    35    1
    42    13    36    1
    43    15    37    1
    44    16    38    1
    45    19    39    1
    46    20    40    1
    47    20    41    1
    48    21    42    1
    49    24    43    1
    50    26    44    1
    51    27    45    1
    52    28    46    1
    53    29    47    1
    54    30    48    1
