@<TRIPOS>MOLECULE
*****
 46 52 0 0 0
SMALL
GASTEIGER

@<TRIPOS>ATOM
      1 C          -0.2052    4.1212    0.3303 C.3     1  UNL1        0.0000
      2 C           0.8764    3.0958    0.3086 C.2     1  UNL1        0.0000
      3 C           0.3388    1.8725    0.1648 C.ar    1  UNL1        0.0000
      4 C           1.0342    0.5830    0.1028 C.ar    1  UNL1        0.0000
      5 C           2.4338    0.4973    0.0352 C.ar    1  UNL1        0.0000
      6 C           3.0478   -0.7381   -0.1391 C.ar    1  UNL1        0.0000
      7 N           2.3062   -1.8630   -0.2811 N.ar    1  UNL1        0.0000
      8 C           0.9533   -1.7468   -0.2095 C.ar    1  UNL1        0.0000
      9 C           0.2402   -0.5772    0.0426 C.ar    1  UNL1        0.0000
     10 C          -1.2426   -0.4991    0.1271 C.ar    1  UNL1        0.0000
     11 C          -2.1185   -1.5958    0.3331 C.ar    1  UNL1        0.0000
     12 C          -1.8292   -2.8780    0.7468 C.ar    1  UNL1        0.0000
     13 N          -3.0097   -3.5902    0.8049 N.ar    1  UNL1        0.0000
     14 C          -4.0679   -2.7738    0.4901 C.ar    1  UNL1        0.0000
     15 C          -3.5472   -1.5305    0.2326 C.ar    1  UNL1        0.0000
     16 C          -4.2551   -0.3798   -0.0692 C.ar    1  UNL1        0.0000
     17 C          -5.6986   -0.2504   -0.2431 C.2     1  UNL1        0.0000
     18 C          -6.0733    1.0082   -0.5238 C.2     1  UNL1        0.0000
     19 SI         -4.6254    2.1942   -0.5869 Si      1  UNL1        0.0000
     20 C          -3.4167    0.7804   -0.1763 C.ar    1  UNL1        0.0000
     21 C          -1.9790    0.7571   -0.0206 C.ar    1  UNL1        0.0000
     22 C          -1.1212    1.9760    0.0675 C.ar    1  UNL1        0.0000
     23 C          -1.4369    3.2797    0.1878 C.2     1  UNL1        0.0000
     24 C           4.5217   -0.8900   -0.2101 C.ar    1  UNL1        0.0000
     25 C           5.1319   -2.1303   -0.4135 C.ar    1  UNL1        0.0000
     26 C           6.5219   -2.2145   -0.4708 C.ar    1  UNL1        0.0000
     27 C           7.2785   -1.0611   -0.3238 C.ar    1  UNL1        0.0000
     28 C           6.6103    0.1331   -0.1249 C.ar    1  UNL1        0.0000
     29 N           5.2643    0.2444   -0.0652 N.ar    1  UNL1        0.0000
     30 H          -0.2107    4.6695    1.2769 H       1  UNL1        0.0000
     31 H          -0.1069    4.8234   -0.5025 H       1  UNL1        0.0000
     32 H           1.9227    3.3392    0.4074 H       1  UNL1        0.0000
     33 H           3.0504    1.3880    0.0961 H       1  UNL1        0.0000
     34 H           0.4536   -2.6850   -0.4210 H       1  UNL1        0.0000
     35 H          -0.9153   -3.3718    1.0428 H       1  UNL1        0.0000
     36 H          -3.0867   -4.5617    1.0780 H       1  UNL1        0.0000
     37 H          -5.0808   -3.1515    0.5104 H       1  UNL1        0.0000
     38 H          -6.3734   -1.0900   -0.1579 H       1  UNL1        0.0000
     39 H          -7.0815    1.3510   -0.6972 H       1  UNL1        0.0000
     40 H          -4.7233    3.2106    0.4919 H       1  UNL1        0.0000
     41 H          -4.4245    2.7481   -1.9494 H       1  UNL1        0.0000
     42 H          -2.4082    3.7350    0.2327 H       1  UNL1        0.0000
     43 H           4.5304   -3.0275   -0.5277 H       1  UNL1        0.0000
     44 H           7.0042   -3.1747   -0.6291 H       1  UNL1        0.0000
     45 H           8.3613   -1.0915   -0.3633 H       1  UNL1        0.0000
     46 H           7.1561    1.0646   -0.0041 H       1  UNL1        0.0000
@<TRIPOS>BOND
     1     1     2    1
     2     2     3    2
     3     3     4   ar
     4     4     5   ar
     5     5     6   ar
     6     6     7   ar
     7     7     8   ar
     8     8     9   ar
     9     9    10   ar
    10    10    11   ar
    11    11    12   ar
    12    12    13   ar
    13    13    14   ar
    14    14    15   ar
    15    15    16   ar
    16    16    17    1
    17    17    18    2
    18    18    19    1
    19    19    20    1
    20    20    21   ar
    21    21    22   ar
    22    22    23    2
    23     6    24    1
    24    24    25   ar
    25    25    26   ar
    26    26    27   ar
    27    27    28   ar
    28    28    29   ar
    29    23     1    1
    30    29    24   ar
    31    22     3   ar
    32     9     4   ar
    33    21    10   ar
    34    15    11   ar
    35    20    16   ar
    36     1    30    1
    37     1    31    1
    38     2    32    1
    39     5    33    1
    40     8    34    1
    41    12    35    1
    42    13    36    1
    43    14    37    1
    44    17    38    1
    45    18    39    1
    46    19    40    1
    47    19    41    1
    48    23    42    1
    49    25    43    1
    50    26    44    1
    51    27    45    1
    52    28    46    1
