@<TRIPOS>MOLECULE
*****
 41 47 0 0 0
SMALL
GASTEIGER

@<TRIPOS>ATOM
      1 C           0.5169    1.2897    3.5205 C.3     1  UNL1       -0.0148
      2 C          -0.6832    0.9840    2.6867 C.2     1  UNL1       -0.0719
      3 C          -0.2978    0.5411    1.4767 C.ar    1  UNL1       -0.0133
      4 C          -1.1382    0.1285    0.3503 C.ar    1  UNL1       -0.0062
      5 C          -2.5412    0.1599    0.4393 C.ar    1  UNL1       -0.0243
      6 C          -3.3207   -0.2361   -0.6412 C.ar    1  UNL1        0.1085
      7 N          -2.7301   -0.6539   -1.7850 N.ar    1  UNL1       -0.2512
      8 C          -1.3710   -0.6756   -1.8472 C.ar    1  UNL1        0.0367
      9 C          -0.4927   -0.3020   -0.8279 C.ar    1  UNL1        0.0107
     10 C           1.0070   -0.3365   -0.9245 C.ar    1  UNL1        0.0221
     11 C           1.7029   -0.7656   -2.1003 C.ar    1  UNL1        0.1089
     12 N           1.1684   -1.1887   -3.2595 N.ar    1  UNL1       -0.1901
     13 S           2.3932   -1.5665   -4.2947 S.2     1  UNL1        0.1165
     14 N           3.6904   -1.2177   -3.3388 N.ar    1  UNL1       -0.1901
     15 C           3.2072   -0.7866   -2.1579 C.ar    1  UNL1        0.1096
     16 C           3.9948   -0.3797   -1.0430 C.ar    1  UNL1        0.0292
     17 C           5.4062   -0.4042   -1.1094 C.ar    1  UNL1       -0.0490
     18 C           6.1461   -0.0044   -0.0139 C.ar    1  UNL1       -0.0429
     19 C           5.4465    0.4015    1.0975 C.ar    1  UNL1        0.0283
     20 N           4.0934    0.4288    1.1714 N.ar    1  UNL1       -0.2543
     21 C           3.3228    0.0469    0.1249 C.ar    1  UNL1        0.0814
     22 C           1.8803    0.0638    0.1706 C.ar    1  UNL1        0.0183
     23 C           1.1604    0.5146    1.4030 C.ar    1  UNL1       -0.0114
     24 C           1.6335    0.9484    2.5873 C.2     1  UNL1       -0.0719
     25 C          -4.8065   -0.2209   -0.5956 C.ar    1  UNL1        0.1812
     26 N          -5.4796   -0.6199   -1.6834 N.ar    1  UNL1       -0.2145
     27 C          -6.8026   -0.5815   -1.5741 C.ar    1  UNL1        0.1201
     28 N          -7.4882   -0.1905   -0.5037 N.ar    1  UNL1       -0.2241
     29 C          -6.7228    0.1838    0.5164 C.ar    1  UNL1        0.1201
     30 N          -5.3920    0.1939    0.5396 N.ar    1  UNL1       -0.2145
     31 H           0.5459    0.6657    4.4183 H       1  UNL1        0.0350
     32 H           0.5453    2.3460    3.8031 H       1  UNL1        0.0350
     33 H          -1.6918    1.1151    3.0454 H       1  UNL1        0.0581
     34 H          -3.0314    0.4920    1.3485 H       1  UNL1        0.0646
     35 H          -1.0365   -1.0294   -2.8147 H       1  UNL1        0.0836
     36 H           5.9160   -0.7339   -2.0121 H       1  UNL1        0.0625
     37 H           7.2294   -0.0096   -0.0273 H       1  UNL1        0.0633
     38 H           5.9619    0.7295    1.9961 H       1  UNL1        0.0830
     39 H           2.6652    1.0564    2.8809 H       1  UNL1        0.0581
     40 H          -7.3753   -0.8987   -2.4389 H       1  UNL1        0.1048
     41 H          -7.2321    0.5126    1.4161 H       1  UNL1        0.1048
@<TRIPOS>BOND
     1     1     2    1
     2     2     3    2
     3     3     4   ar
     4     4     5   ar
     5     5     6   ar
     6     6     7   ar
     7     7     8   ar
     8     8     9   ar
     9     9    10   ar
    10    10    11   ar
    11    11    12   ar
    12    12    13   ar
    13    13    14   ar
    14    14    15   ar
    15    15    16   ar
    16    16    17   ar
    17    17    18   ar
    18    18    19   ar
    19    19    20   ar
    20    20    21   ar
    21    21    22   ar
    22    22    23   ar
    23    23    24    2
    24     6    25    1
    25    25    26   ar
    26    26    27   ar
    27    27    28   ar
    28    28    29   ar
    29    29    30   ar
    30    24     1    1
    31    30    25   ar
    32    23     3   ar
    33     9     4   ar
    34    22    10   ar
    35    15    11   ar
    36    21    16   ar
    37     1    31    1
    38     1    32    1
    39     2    33    1
    40     5    34    1
    41     8    35    1
    42    17    36    1
    43    18    37    1
    44    19    38    1
    45    24    39    1
    46    27    40    1
    47    29    41    1
