@<TRIPOS>MOLECULE
*****
 43 50 0 0 0
SMALL
GASTEIGER

@<TRIPOS>ATOM
      1 C          -1.9465   -4.0300    0.3705 C.3     1  UNL1       -0.0148
      2 C          -0.6594   -3.2782    0.4027 C.2     1  UNL1       -0.0719
      3 C          -0.8954   -1.9624    0.2589 C.ar    1  UNL1       -0.0133
      4 C           0.0798   -0.8652    0.2336 C.ar    1  UNL1       -0.0063
      5 C           1.4578   -1.1136    0.3681 C.ar    1  UNL1       -0.0269
      6 C           2.3522   -0.0562    0.3402 C.ar    1  UNL1        0.0788
      7 N           1.9239    1.2110    0.1860 N.ar    1  UNL1       -0.2538
      8 C           0.5874    1.4275    0.0578 C.ar    1  UNL1        0.0366
      9 C          -0.4090    0.4497    0.0699 C.ar    1  UNL1        0.0107
     10 C          -1.8794    0.7166   -0.0740 C.ar    1  UNL1        0.0211
     11 C          -2.4237    2.0272   -0.2420 C.ar    1  UNL1        0.1088
     12 N          -1.7560    3.2005   -0.2989 N.ar    1  UNL1       -0.1901
     13 S          -2.8577    4.4309   -0.5043 S.2     1  UNL1        0.1165
     14 N          -4.2703    3.5485   -0.5352 N.ar    1  UNL1       -0.1901
     15 C          -3.8409    2.3028   -0.3827 C.ar    1  UNL1        0.1087
     16 C          -4.7543    1.2064   -0.3530 C.ar    1  UNL1        0.0180
     17 C          -6.1512    1.3692   -0.4815 C.ar    1  UNL1       -0.0448
     18 C          -6.7713    0.1471   -0.4163 C.ar    1  UNL1       -0.0231
     19 S          -5.6555   -1.1258   -0.2055 S.2     1  UNL1       -0.0960
     20 C          -4.2603   -0.0790   -0.1914 C.ar    1  UNL1        0.0298
     21 C          -2.8600   -0.3498   -0.0523 C.ar    1  UNL1        0.0066
     22 C          -2.3347   -1.7285    0.1208 C.ar    1  UNL1       -0.0123
     23 C          -2.9430   -2.9283    0.1858 C.2     1  UNL1       -0.0719
     24 C           3.8077   -0.1959    0.4707 C.ar    1  UNL1        0.0467
     25 S           4.5953   -1.7474    0.6798 S.2     1  UNL1       -0.0924
     26 C           6.1931   -1.0792    0.7460 C.ar    1  UNL1        0.0002
     27 C           6.0838    0.2557    0.6120 C.ar    1  UNL1        0.0542
     28 N           7.1020    1.1638    0.6090 N.ar    1  UNL1       -0.3602
     29 C           6.4011    2.3558    0.4407 C.ar    1  UNL1        0.0028
     30 C           5.0109    2.1303    0.3497 C.ar    1  UNL1       -0.0355
     31 C           4.8000    0.7292    0.4640 C.ar    1  UNL1        0.0159
     32 H          -2.1179   -4.5651    1.3090 H       1  UNL1        0.0350
     33 H          -1.9751   -4.7335   -0.4666 H       1  UNL1        0.0350
     34 H           0.2961   -3.7632    0.5258 H       1  UNL1        0.0581
     35 H           1.8191   -2.1263    0.4929 H       1  UNL1        0.0645
     36 H           0.3760    2.4834   -0.0589 H       1  UNL1        0.0836
     37 H          -6.6783    2.3071   -0.6129 H       1  UNL1        0.0630
     38 H          -7.8305   -0.0623   -0.4824 H       1  UNL1        0.0694
     39 H          -3.9920   -3.1549    0.1231 H       1  UNL1        0.0581
     40 H           7.0760   -1.6889    0.8744 H       1  UNL1        0.0714
     41 H           8.0947    0.9904    0.7054 H       1  UNL1        0.1653
     42 H           6.9505    3.2873    0.3977 H       1  UNL1        0.0807
     43 H           4.2547    2.8935    0.2170 H       1  UNL1        0.0639
@<TRIPOS>BOND
     1     1     2    1
     2     2     3    2
     3     3     4   ar
     4     4     5   ar
     5     5     6   ar
     6     6     7   ar
     7     7     8   ar
     8     8     9   ar
     9     9    10   ar
    10    10    11   ar
    11    11    12   ar
    12    12    13   ar
    13    13    14   ar
    14    14    15   ar
    15    15    16   ar
    16    16    17   ar
    17    17    18   ar
    18    18    19   ar
    19    19    20   ar
    20    20    21   ar
    21    21    22   ar
    22    22    23    2
    23     6    24    1
    24    24    25   ar
    25    25    26   ar
    26    26    27   ar
    27    27    28   ar
    28    28    29   ar
    29    29    30   ar
    30    30    31   ar
    31    23     1    1
    32    31    24   ar
    33    22     3   ar
    34    31    27   ar
    35     9     4   ar
    36    21    10   ar
    37    15    11   ar
    38    20    16   ar
    39     1    32    1
    40     1    33    1
    41     2    34    1
    42     5    35    1
    43     8    36    1
    44    17    37    1
    45    18    38    1
    46    23    39    1
    47    26    40    1
    48    28    41    1
    49    29    42    1
    50    30    43    1
