@<TRIPOS>MOLECULE
*****
 43 49 0 0 0
SMALL
GASTEIGER

@<TRIPOS>ATOM
      1 C          -2.2606   -1.9243   -3.1338 C.3     1  UNL1       -0.0148
      2 C          -0.8862   -1.5328   -2.6860 C.2     1  UNL1       -0.0719
      3 C          -0.9573   -0.8987   -1.5038 C.ar    1  UNL1       -0.0133
      4 C           0.1234   -0.3354   -0.6812 C.ar    1  UNL1       -0.0049
      5 C           1.4717   -0.3949   -1.0588 C.ar    1  UNL1       -0.0268
      6 C           2.4381    0.1608   -0.2274 C.ar    1  UNL1        0.0788
      7 N           2.1101    0.7594    0.9406 N.ar    1  UNL1       -0.2537
      8 C           0.7986    0.8056    1.2863 C.ar    1  UNL1        0.0380
      9 C          -0.2460    0.2827    0.5308 C.ar    1  UNL1        0.0268
     10 C          -1.6628    0.3683    0.9701 C.ar    1  UNL1        0.0810
     11 N          -1.8635    0.9986    2.1709 N.ar    1  UNL1       -0.2537
     12 C          -3.1302    1.1100    2.6279 C.ar    1  UNL1        0.0357
     13 C          -4.2054    0.6155    1.9307 C.ar    1  UNL1       -0.0031
     14 C          -5.6195    0.6377    2.2528 C.2     1  UNL1       -0.0565
     15 C          -6.2657    0.0240    1.2508 C.2     1  UNL1       -0.0791
     16 C          -5.3314   -0.4623    0.1693 C.3     1  UNL1       -0.0079
     17 C          -3.9998   -0.0284    0.7040 C.ar    1  UNL1       -0.0253
     18 C          -2.7172   -0.1699    0.1884 C.ar    1  UNL1        0.0125
     19 C          -2.3553   -0.8195   -1.0801 C.ar    1  UNL1       -0.0117
     20 C          -3.1188   -1.4099   -2.0158 C.2     1  UNL1       -0.0719
     21 C           3.8776    0.1568   -0.5207 C.ar    1  UNL1        0.0467
     22 S           4.5457   -0.5546   -1.9765 S.2     1  UNL1       -0.0924
     23 C           6.1861   -0.1640   -1.5765 C.ar    1  UNL1        0.0002
     24 C           6.1771    0.4728   -0.3906 C.ar    1  UNL1        0.0542
     25 N           7.2588    0.9535    0.2880 N.ar    1  UNL1       -0.3602
     26 C           6.6504    1.4959    1.4175 C.ar    1  UNL1        0.0028
     27 C           5.2497    1.3272    1.3823 C.ar    1  UNL1       -0.0355
     28 C           4.9346    0.6446    0.1759 C.ar    1  UNL1        0.0159
     29 H          -2.3501   -3.0100   -3.2321 H       1  UNL1        0.0350
     30 H          -2.5191   -1.4444   -4.0822 H       1  UNL1        0.0350
     31 H           0.0047   -1.7461   -3.2559 H       1  UNL1        0.0581
     32 H           1.7530   -0.8702   -1.9900 H       1  UNL1        0.0645
     33 H           0.6103    1.3011    2.2366 H       1  UNL1        0.0836
     34 H          -3.2445    1.6150    3.5808 H       1  UNL1        0.0836
     35 H          -6.0470    1.0739    3.1411 H       1  UNL1        0.0621
     36 H          -7.3371   -0.1151    1.2076 H       1  UNL1        0.0575
     37 H          -5.5637    0.0292   -0.7797 H       1  UNL1        0.0356
     38 H          -5.3932   -1.5505    0.0780 H       1  UNL1        0.0356
     39 H          -4.1895   -1.5246   -2.0141 H       1  UNL1        0.0581
     40 H           7.0194   -0.4187   -2.2156 H       1  UNL1        0.0714
     41 H           8.2339    0.9133    0.0194 H       1  UNL1        0.1653
     42 H           7.2669    1.9676    2.1718 H       1  UNL1        0.0807
     43 H           4.5538    1.6612    2.1414 H       1  UNL1        0.0639
@<TRIPOS>BOND
     1     1     2    1
     2     2     3    2
     3     3     4   ar
     4     4     5   ar
     5     5     6   ar
     6     6     7   ar
     7     7     8   ar
     8     8     9   ar
     9     9    10   ar
    10    10    11   ar
    11    11    12   ar
    12    12    13   ar
    13    13    14    1
    14    14    15    2
    15    15    16    1
    16    16    17    1
    17    17    18   ar
    18    18    19   ar
    19    19    20    2
    20     6    21    1
    21    21    22   ar
    22    22    23   ar
    23    23    24   ar
    24    24    25   ar
    25    25    26   ar
    26    26    27   ar
    27    27    28   ar
    28    20     1    1
    29    28    21   ar
    30    19     3   ar
    31    28    24   ar
    32     9     4   ar
    33    18    10   ar
    34    17    13   ar
    35     1    29    1
    36     1    30    1
    37     2    31    1
    38     5    32    1
    39     8    33    1
    40    12    34    1
    41    14    35    1
    42    15    36    1
    43    16    37    1
    44    16    38    1
    45    20    39    1
    46    23    40    1
    47    25    41    1
    48    26    42    1
    49    27    43    1
