@<TRIPOS>MOLECULE
*****
 46 53 0 0 0
SMALL
GASTEIGER

@<TRIPOS>ATOM
      1 SI         -2.0140   -3.4529   -2.1137 Si      1  UNL1        0.0000
      2 C          -3.0584   -2.0594   -1.4589 C.2     1  UNL1        0.0000
      3 C          -2.3076   -1.0909   -0.8925 C.ar    1  UNL1        0.0000
      4 C          -2.8296    0.1369   -0.2871 C.ar    1  UNL1        0.0000
      5 C          -1.9459    1.0104    0.2468 C.ar    1  UNL1        0.0000
      6 C          -0.4807    0.7806    0.2632 C.ar    1  UNL1        0.0000
      7 C           0.3347    1.7578    0.8588 C.ar    1  UNL1        0.0000
      8 C           1.7080    1.5233    0.8608 C.ar    1  UNL1        0.0000
      9 O           2.6428    2.3709    1.3982 O.2     1  UNL1        0.0000
     10 C           3.8672    1.7916    1.2027 C.ar    1  UNL1        0.0000
     11 C           5.1194    2.3152    1.5969 C.ar    1  UNL1        0.0000
     12 C           6.3022    1.5910    1.3204 C.ar    1  UNL1        0.0000
     13 C           6.0569    0.3906    0.6586 C.ar    1  UNL1        0.0000
     14 C           7.0144   -0.5138    0.2653 C.ar    1  UNL1        0.0000
     15 N           6.3645   -1.5696   -0.3569 N.ar    1  UNL1        0.0000
     16 C           4.9980   -1.3567   -0.3695 C.ar    1  UNL1        0.0000
     17 C           4.8285   -0.1581    0.2532 C.ar    1  UNL1        0.0000
     18 C           3.6628    0.5944    0.5464 C.ar    1  UNL1        0.0000
     19 C           2.3039    0.3871    0.3108 C.ar    1  UNL1        0.0000
     20 C           1.4800   -0.5859   -0.2828 C.ar    1  UNL1        0.0000
     21 C           0.0848   -0.3887   -0.3065 C.ar    1  UNL1        0.0000
     22 C          -0.8488   -1.3678   -0.9106 C.ar    1  UNL1        0.0000
     23 C          -0.5074   -2.5346   -1.4981 C.2     1  UNL1        0.0000
     24 C          -4.2568    0.4947   -0.2528 C.ar    1  UNL1        0.0000
     25 N          -4.9568    0.6022   -1.4297 N.ar    1  UNL1        0.0000
     26 C          -6.2861    0.9278   -1.4385 C.ar    1  UNL1        0.0000
     27 C          -7.0989    1.1802   -0.3388 C.ar    1  UNL1        0.0000
     28 C          -6.4256    1.0738    0.8925 C.ar    1  UNL1        0.0000
     29 N          -6.9827    1.2648    2.0990 N.ar    1  UNL1        0.0000
     30 S          -5.7814    1.0171    3.2171 S.2     1  UNL1        0.0000
     31 N          -4.5019    0.6654    2.2238 N.ar    1  UNL1        0.0000
     32 C          -4.9617    0.7216    0.9593 C.ar    1  UNL1        0.0000
     33 H          -2.0453   -3.5559   -3.5927 H       1  UNL1        0.0000
     34 H          -2.2322   -4.7254   -1.3840 H       1  UNL1        0.0000
     35 H          -4.1316   -2.0765   -1.5642 H       1  UNL1        0.0000
     36 H          -2.2859    1.9421    0.6922 H       1  UNL1        0.0000
     37 H          -0.0670    2.6605    1.3033 H       1  UNL1        0.0000
     38 H           5.1661    3.2707    2.1100 H       1  UNL1        0.0000
     39 H           7.2830    1.9503    1.6021 H       1  UNL1        0.0000
     40 H           8.0917   -0.5196    0.3615 H       1  UNL1        0.0000
     41 H           6.8271   -2.3808   -0.7463 H       1  UNL1        0.0000
     42 H           4.3233   -2.0738   -0.8136 H       1  UNL1        0.0000
     43 H           1.9300   -1.4722   -0.7126 H       1  UNL1        0.0000
     44 H           0.4749   -2.9544   -1.6332 H       1  UNL1        0.0000
     45 H          -6.7117    0.9836   -2.4407 H       1  UNL1        0.0000
     46 H          -8.1464    1.4322   -0.4191 H       1  UNL1        0.0000
@<TRIPOS>BOND
     1     1     2    1
     2     2     3    2
     3     3     4   ar
     4     4     5   ar
     5     5     6   ar
     6     6     7   ar
     7     7     8   ar
     8     8     9   ar
     9     9    10   ar
    10    10    11   ar
    11    11    12   ar
    12    12    13   ar
    13    13    14   ar
    14    14    15   ar
    15    15    16   ar
    16    16    17   ar
    17    17    18   ar
    18    18    19   ar
    19    19    20   ar
    20    20    21   ar
    21    21    22   ar
    22    22    23    2
    23     4    24    1
    24    24    25   ar
    25    25    26   ar
    26    26    27   ar
    27    27    28   ar
    28    28    29   ar
    29    29    30   ar
    30    30    31   ar
    31    31    32   ar
    32    23     1    1
    33    32    24   ar
    34    22     3   ar
    35    32    28   ar
    36    21     6   ar
    37    19     8   ar
    38    18    10   ar
    39    17    13   ar
    40     1    33    1
    41     1    34    1
    42     2    35    1
    43     5    36    1
    44     7    37    1
    45    11    38    1
    46    12    39    1
    47    14    40    1
    48    15    41    1
    49    16    42    1
    50    20    43    1
    51    23    44    1
    52    26    45    1
    53    27    46    1
