@<TRIPOS>MOLECULE
*****
 45 51 0 0 0
SMALL
GASTEIGER

@<TRIPOS>ATOM
      1 C          -2.1308   -4.6836    0.0740 C.3     1  UNL1       -0.0148
      2 C          -0.7277   -4.1744    0.2365 C.2     1  UNL1       -0.0718
      3 C          -0.7212   -2.8455    0.0780 C.ar    1  UNL1       -0.0104
      4 C           0.3309   -1.9018    0.1336 C.ar    1  UNL1        0.0288
      5 C           1.7163   -1.9604    0.3599 C.ar    1  UNL1       -0.0075
      6 C           2.1691   -0.6493    0.2903 C.ar    1  UNL1        0.1369
      7 O           1.1260    0.1981    0.0083 O.2     1  UNL1       -0.4542
      8 C           0.0186   -0.5774   -0.0758 C.ar    1  UNL1        0.1440
      9 C          -1.2946   -0.0086   -0.3552 C.ar    1  UNL1        0.0262
     10 C          -1.5033    1.3573   -0.5545 C.ar    1  UNL1       -0.0428
     11 C          -2.7924    1.8445   -0.8178 C.ar    1  UNL1       -0.0172
     12 C          -3.0206    3.2146   -1.0203 C.ar    1  UNL1       -0.0540
     13 C          -4.3051    3.6936   -1.2815 C.ar    1  UNL1       -0.0612
     14 C          -5.3776    2.8094   -1.3439 C.ar    1  UNL1       -0.0612
     15 C          -5.1688    1.4435   -1.1453 C.ar    1  UNL1       -0.0540
     16 C          -3.8838    0.9428   -0.8813 C.ar    1  UNL1       -0.0173
     17 C          -3.6672   -0.4327   -0.6807 C.ar    1  UNL1       -0.0456
     18 C          -2.3844   -0.9226   -0.4180 C.ar    1  UNL1       -0.0063
     19 C          -2.0868   -2.3654   -0.1973 C.ar    1  UNL1       -0.0133
     20 C          -2.9116   -3.4269   -0.2014 C.2     1  UNL1       -0.0719
     21 C           3.4805   -0.0467    0.4015 C.ar    1  UNL1        0.0255
     22 C           4.6584   -0.6780   -0.0747 C.ar    1  UNL1       -0.0505
     23 C           5.9701   -0.1097    0.0164 C.ar    1  UNL1       -0.0605
     24 C           6.2443    1.1445    0.5991 C.ar    1  UNL1       -0.0535
     25 C           5.0885    1.7598    1.0800 C.ar    1  UNL1       -0.0102
     26 C           5.1198    2.9836    1.7017 C.ar    1  UNL1       -0.0166
     27 S           3.5506    3.4655    2.2050 S.2     1  UNL1       -0.1039
     28 C           2.8316    2.0291    1.5899 C.ar    1  UNL1       -0.0159
     29 C           3.7559    1.2014    0.9930 C.ar    1  UNL1       -0.0002
     30 H          -2.4811   -5.1704    0.9889 H       1  UNL1        0.0350
     31 H          -2.2015   -5.3812   -0.7657 H       1  UNL1        0.0350
     32 H           0.1287   -4.7951    0.4485 H       1  UNL1        0.0581
     33 H           2.3223   -2.8323    0.5581 H       1  UNL1        0.0662
     34 H          -0.6584    2.0407   -0.5053 H       1  UNL1        0.0631
     35 H          -2.1952    3.9222   -0.9757 H       1  UNL1        0.0624
     36 H          -4.4663    4.7573   -1.4361 H       1  UNL1        0.0618
     37 H          -6.3783    3.1817   -1.5474 H       1  UNL1        0.0618
     38 H          -6.0217    0.7705   -1.1987 H       1  UNL1        0.0624
     39 H          -4.5091   -1.1176   -0.7315 H       1  UNL1        0.0630
     40 H          -3.9766   -3.4143   -0.3726 H       1  UNL1        0.0581
     41 H           4.5710   -1.6526   -0.5569 H       1  UNL1        0.0625
     42 H           6.8036   -0.6822   -0.3923 H       1  UNL1        0.0618
     43 H           7.2430    1.5563    0.6593 H       1  UNL1        0.0624
     44 H           5.9685    3.6240    1.8981 H       1  UNL1        0.0699
     45 H           1.7665    1.8883    1.7086 H       1  UNL1        0.0700
@<TRIPOS>BOND
     1     1     2    1
     2     2     3    2
     3     3     4   ar
     4     4     5   ar
     5     5     6   ar
     6     6     7   ar
     7     7     8   ar
     8     8     9   ar
     9     9    10   ar
    10    10    11   ar
    11    11    12   ar
    12    12    13   ar
    13    13    14   ar
    14    14    15   ar
    15    15    16   ar
    16    16    17   ar
    17    17    18   ar
    18    18    19   ar
    19    19    20    2
    20     6    21    1
    21    21    22   ar
    22    22    23   ar
    23    23    24   ar
    24    24    25   ar
    25    25    26   ar
    26    26    27   ar
    27    27    28   ar
    28    28    29   ar
    29    20     1    1
    30    29    21   ar
    31    19     3   ar
    32    29    25   ar
    33     8     4   ar
    34    18     9   ar
    35    16    11   ar
    36     1    30    1
    37     1    31    1
    38     2    32    1
    39     5    33    1
    40    10    34    1
    41    12    35    1
    42    13    36    1
    43    14    37    1
    44    15    38    1
    45    17    39    1
    46    20    40    1
    47    22    41    1
    48    23    42    1
    49    24    43    1
    50    26    44    1
    51    28    45    1
