@<TRIPOS>MOLECULE
*****
 47 54 0 0 0
SMALL
GASTEIGER

@<TRIPOS>ATOM
      1 C          -0.9266    4.1876   -0.3196 C.3     1  UNL1       -0.0148
      2 C           0.3429    3.4575   -0.0167 C.2     1  UNL1       -0.0719
      3 C           0.0733    2.1523    0.1140 C.ar    1  UNL1       -0.0129
      4 C           0.9297    1.0412    0.2995 C.ar    1  UNL1       -0.0022
      5 C           2.3224    1.0448    0.5729 C.ar    1  UNL1       -0.0381
      6 C           2.8148   -0.2329    0.7368 C.ar    1  UNL1        0.0282
      7 S           1.5685   -1.3945    0.5774 S.2     1  UNL1       -0.0870
      8 C           0.3623   -0.2257    0.2042 C.ar    1  UNL1        0.0288
      9 C          -1.0503   -0.5299   -0.0472 C.ar    1  UNL1        0.0050
     10 C          -1.9341    0.5325    0.0251 C.ar    1  UNL1       -0.0011
     11 C          -3.4290    0.2643    0.1299 C.ar    1  UNL1       -0.0090
     12 C          -4.3084    1.2229    0.6675 C.ar    1  UNL1       -0.0534
     13 C          -5.6864    0.9967    0.7518 C.ar    1  UNL1       -0.0611
     14 C          -6.2187   -0.2150    0.3343 C.ar    1  UNL1       -0.0611
     15 C          -5.3678   -1.2156   -0.1261 C.ar    1  UNL1       -0.0534
     16 C          -3.9826   -0.9940   -0.2047 C.ar    1  UNL1       -0.0099
     17 C          -3.0441   -2.0625   -0.5369 C.ar    1  UNL1       -0.0135
     18 C          -3.2872   -3.3159   -0.9541 C.2     1  UNL1       -0.0719
     19 C          -1.9921   -4.0329   -1.1541 C.3     1  UNL1       -0.0148
     20 C          -0.9909   -2.9787   -0.7923 C.2     1  UNL1       -0.0719
     21 C          -1.6065   -1.8429   -0.4130 C.ar    1  UNL1       -0.0124
     22 C          -1.3582    1.8996   -0.0384 C.ar    1  UNL1       -0.0129
     23 C          -1.9379    3.0771   -0.3414 C.2     1  UNL1       -0.0719
     24 C           4.1714   -0.6122    1.0186 C.ar    1  UNL1        0.0402
     25 S           4.6112   -1.7357    2.2586 S.2     1  UNL1       -0.0944
     26 C           6.2960   -1.5872    1.9412 C.ar    1  UNL1       -0.0155
     27 C           6.4508   -0.7105    0.9253 C.ar    1  UNL1       -0.0032
     28 C           7.5885   -0.2132    0.2466 C.ar    1  UNL1       -0.0465
     29 C           7.2519    0.6902   -0.7674 C.ar    1  UNL1       -0.0231
     30 S           5.5378    1.0130   -0.9875 S.2     1  UNL1       -0.0955
     31 C           5.2949   -0.1457    0.3836 C.ar    1  UNL1        0.0346
     32 H          -1.1608    4.9209    0.4575 H       1  UNL1        0.0350
     33 H          -0.8709    4.6851   -1.2924 H       1  UNL1        0.0350
     34 H           1.3175    3.9175    0.0269 H       1  UNL1        0.0581
     35 H           2.9297    1.9365    0.6668 H       1  UNL1        0.0635
     36 H          -3.9364    2.1608    1.0685 H       1  UNL1        0.0624
     37 H          -6.3374    1.7659    1.1597 H       1  UNL1        0.0618
     38 H          -7.2879   -0.3962    0.4027 H       1  UNL1        0.0618
     39 H          -5.7946   -2.1780   -0.3931 H       1  UNL1        0.0624
     40 H          -4.2511   -3.7652   -1.1319 H       1  UNL1        0.0581
     41 H          -1.8729   -4.3489   -2.1945 H       1  UNL1        0.0350
     42 H          -1.9103   -4.9003   -0.4928 H       1  UNL1        0.0350
     43 H           0.0676   -3.1526   -0.8869 H       1  UNL1        0.0581
     44 H          -2.9697    3.2431   -0.6081 H       1  UNL1        0.0581
     45 H           7.0313   -2.1420    2.5065 H       1  UNL1        0.0700
     46 H           8.6138   -0.4862    0.4644 H       1  UNL1        0.0629
     47 H           7.9364    1.2049   -1.4281 H       1  UNL1        0.0694
@<TRIPOS>BOND
     1     1     2    1
     2     2     3    2
     3     3     4   ar
     4     4     5   ar
     5     5     6   ar
     6     6     7   ar
     7     7     8   ar
     8     8     9   ar
     9     9    10   ar
    10    10    11   ar
    11    11    12   ar
    12    12    13   ar
    13    13    14   ar
    14    14    15   ar
    15    15    16   ar
    16    16    17   ar
    17    17    18    2
    18    18    19    1
    19    19    20    1
    20    20    21    2
    21    10    22   ar
    22    22    23    2
    23     6    24    1
    24    24    25   ar
    25    25    26   ar
    26    26    27   ar
    27    27    28   ar
    28    28    29   ar
    29    29    30   ar
    30    30    31   ar
    31    23     1    1
    32    31    24   ar
    33    22     3   ar
    34    31    27   ar
    35     8     4   ar
    36    21     9   ar
    37    16    11   ar
    38    21    17   ar
    39     1    32    1
    40     1    33    1
    41     2    34    1
    42     5    35    1
    43    12    36    1
    44    13    37    1
    45    14    38    1
    46    15    39    1
    47    18    40    1
    48    19    41    1
    49    19    42    1
    50    20    43    1
    51    23    44    1
    52    26    45    1
    53    28    46    1
    54    29    47    1
