@<TRIPOS>MOLECULE
*****
 48 55 0 0 0
SMALL
GASTEIGER

@<TRIPOS>ATOM
      1 C          -1.0799   -4.7537    0.1106 C.3     1  UNL1       -0.0148
      2 C           0.2163   -4.0150    0.0053 C.2     1  UNL1       -0.0719
      3 C          -0.0312   -2.7018   -0.0909 C.ar    1  UNL1       -0.0129
      4 C           0.8601   -1.6008   -0.1272 C.ar    1  UNL1       -0.0022
      5 C           2.2674   -1.6176   -0.3189 C.ar    1  UNL1       -0.0380
      6 C           2.7966   -0.3440   -0.4210 C.ar    1  UNL1        0.0291
      7 S           1.5463    0.8281   -0.3275 S.2     1  UNL1       -0.0870
      8 C           0.3303   -0.3275    0.0163 C.ar    1  UNL1        0.0288
      9 C          -1.1305   -0.0162    0.2048 C.ar    1  UNL1        0.0054
     10 C          -1.6502    1.2354    0.6437 C.ar    1  UNL1       -0.0085
     11 C          -0.8727    2.2091    1.3284 C.ar    1  UNL1       -0.0534
     12 C          -1.3783    3.4434    1.7320 C.ar    1  UNL1       -0.0611
     13 C          -2.6997    3.7428    1.4826 C.ar    1  UNL1       -0.0611
     14 C          -3.5085    2.7921    0.8616 C.ar    1  UNL1       -0.0534
     15 C          -3.0312    1.5177    0.4468 C.ar    1  UNL1       -0.0095
     16 C          -3.8897    0.5346   -0.1566 C.ar    1  UNL1       -0.0067
     17 C          -5.2506    0.7790   -0.4719 C.ar    1  UNL1       -0.0353
     18 C          -6.0341   -0.1996   -1.0601 C.ar    1  UNL1        0.0282
     19 N          -5.5727   -1.4118   -1.3807 N.ar    1  UNL1       -0.2626
     20 C          -4.2748   -1.6474   -1.0806 C.ar    1  UNL1        0.0359
     21 C          -3.3866   -0.7556   -0.4454 C.ar    1  UNL1        0.0091
     22 C          -2.0369   -1.0663   -0.1419 C.ar    1  UNL1        0.0004
     23 C          -1.4732   -2.4533   -0.1108 C.ar    1  UNL1       -0.0128
     24 C          -2.0869   -3.6396    0.0665 C.2     1  UNL1       -0.0719
     25 C           4.1762    0.0078   -0.6442 C.ar    1  UNL1        0.0498
     26 S           5.3059   -1.0482   -1.4553 S.2     1  UNL1       -0.0934
     27 C           6.6332    0.0599   -1.3110 C.ar    1  UNL1       -0.0145
     28 C           6.1799    1.1503   -0.6632 C.ar    1  UNL1        0.0073
     29 C           6.6284    2.4046   -0.1854 C.ar    1  UNL1       -0.0361
     30 C           5.5238    3.0291    0.4302 C.ar    1  UNL1        0.0028
     31 N           4.3841    2.2312    0.3691 N.ar    1  UNL1       -0.3597
     32 C           4.8508    1.1324   -0.2985 C.ar    1  UNL1        0.0619
     33 H          -1.2161   -5.4440   -0.7268 H       1  UNL1        0.0350
     34 H          -1.1435   -5.3013    1.0555 H       1  UNL1        0.0350
     35 H           1.1878   -4.4815    0.0542 H       1  UNL1        0.0581
     36 H           2.8605   -2.5194   -0.4100 H       1  UNL1        0.0635
     37 H           0.1528    1.9977    1.6160 H       1  UNL1        0.0624
     38 H          -0.7400    4.1538    2.2498 H       1  UNL1        0.0618
     39 H          -3.1150    4.6990    1.7890 H       1  UNL1        0.0618
     40 H          -4.5483    3.0751    0.7250 H       1  UNL1        0.0624
     41 H          -5.7264    1.7333   -0.2798 H       1  UNL1        0.0639
     42 H          -7.0764   -0.0144   -1.3025 H       1  UNL1        0.0830
     43 H          -3.9444   -2.6185   -1.4359 H       1  UNL1        0.0836
     44 H          -3.1413   -3.8176    0.2103 H       1  UNL1        0.0581
     45 H           7.6144   -0.1734   -1.6978 H       1  UNL1        0.0700
     46 H           7.6219    2.8260   -0.2628 H       1  UNL1        0.0639
     47 H           5.4604    3.9956    0.9136 H       1  UNL1        0.0807
     48 H           3.4419    2.3906    0.7064 H       1  UNL1        0.1654
@<TRIPOS>BOND
     1     1     2    1
     2     2     3    2
     3     3     4   ar
     4     4     5   ar
     5     5     6   ar
     6     6     7   ar
     7     7     8   ar
     8     8     9   ar
     9     9    10   ar
    10    10    11   ar
    11    11    12   ar
    12    12    13   ar
    13    13    14   ar
    14    14    15   ar
    15    15    16   ar
    16    16    17   ar
    17    17    18   ar
    18    18    19   ar
    19    19    20   ar
    20    20    21   ar
    21    21    22   ar
    22    22    23   ar
    23    23    24    2
    24     6    25    1
    25    25    26   ar
    26    26    27   ar
    27    27    28   ar
    28    28    29   ar
    29    29    30   ar
    30    30    31   ar
    31    31    32   ar
    32    24     1    1
    33    32    25   ar
    34    23     3   ar
    35    32    28   ar
    36     8     4   ar
    37    22     9   ar
    38    15    10   ar
    39    21    16   ar
    40     1    33    1
    41     1    34    1
    42     2    35    1
    43     5    36    1
    44    11    37    1
    45    12    38    1
    46    13    39    1
    47    14    40    1
    48    17    41    1
    49    18    42    1
    50    20    43    1
    51    24    44    1
    52    27    45    1
    53    29    46    1
    54    30    47    1
    55    31    48    1
