@<TRIPOS>MOLECULE
*****
 40 46 0 0 0
SMALL
GASTEIGER

@<TRIPOS>ATOM
      1 C          -1.3612   -3.8580    0.9326 C.3     1  UNL1       -0.0148
      2 C          -0.0447   -3.1619    0.8250 C.2     1  UNL1       -0.0719
      3 C          -0.2461   -1.8661    0.5472 C.ar    1  UNL1       -0.0129
      4 C           0.7053   -0.8247    0.3506 C.ar    1  UNL1       -0.0021
      5 C           2.1237   -0.9142    0.4106 C.ar    1  UNL1       -0.0386
      6 C           2.7353    0.3007    0.1618 C.ar    1  UNL1        0.0220
      7 S           1.5658    1.5216   -0.1245 S.2     1  UNL1       -0.0875
      8 C           0.2493    0.4530    0.0614 C.ar    1  UNL1        0.0304
      9 C          -1.1823    0.8152   -0.0573 C.ar    1  UNL1        0.0272
     10 C          -1.6506    2.1274   -0.3607 C.ar    1  UNL1        0.1094
     11 N          -0.9336    3.2489   -0.5974 N.ar    1  UNL1       -0.1901
     12 S          -2.0034    4.4933   -0.8956 S.2     1  UNL1        0.1165
     13 N          -3.4572    3.6831   -0.7466 N.ar    1  UNL1       -0.1901
     14 C          -3.0655    2.4497   -0.4631 C.ar    1  UNL1        0.1096
     15 C          -3.9968    1.3932   -0.2457 C.ar    1  UNL1        0.0284
     16 C          -5.3907    1.4755   -0.2905 C.ar    1  UNL1       -0.0345
     17 C          -5.8242    0.2000   -0.0117 C.ar    1  UNL1        0.0028
     18 N          -4.7209   -0.6016    0.1893 N.ar    1  UNL1       -0.3601
     19 C          -3.5471    0.1164    0.0469 C.ar    1  UNL1        0.0571
     20 C          -2.1749   -0.2149    0.1449 C.ar    1  UNL1        0.0167
     21 C          -1.6882   -1.5862    0.4488 C.ar    1  UNL1       -0.0114
     22 C          -2.3371   -2.7451    0.6700 C.2     1  UNL1       -0.0719
     23 C           4.1676    0.6197    0.1495 C.ar    1  UNL1        0.0068
     24 C           4.7425    1.4730   -0.7984 C.ar    1  UNL1       -0.0507
     25 C           6.1132    1.7286   -0.7704 C.ar    1  UNL1       -0.0430
     26 C           6.8776    1.1162    0.2081 C.ar    1  UNL1        0.0276
     27 N           6.3707    0.2826    1.1397 N.ar    1  UNL1       -0.2626
     28 C           5.0336    0.0586    1.0879 C.ar    1  UNL1        0.0357
     29 H          -1.5060   -4.2801    1.9313 H       1  UNL1        0.0350
     30 H          -1.4544   -4.6474    0.1811 H       1  UNL1        0.0350
     31 H           0.9097   -3.6487    0.9518 H       1  UNL1        0.0581
     32 H           2.6741   -1.8243    0.6156 H       1  UNL1        0.0635
     33 H          -6.0085    2.3405   -0.4952 H       1  UNL1        0.0639
     34 H          -6.8217   -0.2127    0.0640 H       1  UNL1        0.0807
     35 H          -4.7831   -1.5810    0.4151 H       1  UNL1        0.1654
     36 H          -3.3938   -2.9343    0.6730 H       1  UNL1        0.0581
     37 H           4.1357    1.9390   -1.5709 H       1  UNL1        0.0625
     38 H           6.5717    2.3887   -1.4982 H       1  UNL1        0.0633
     39 H           7.9490    1.2845    0.2693 H       1  UNL1        0.0829
     40 H           4.6669   -0.6079    1.8643 H       1  UNL1        0.0836
@<TRIPOS>BOND
     1     1     2    1
     2     2     3    2
     3     3     4   ar
     4     4     5   ar
     5     5     6   ar
     6     6     7   ar
     7     7     8   ar
     8     8     9   ar
     9     9    10   ar
    10    10    11   ar
    11    11    12   ar
    12    12    13   ar
    13    13    14   ar
    14    14    15   ar
    15    15    16   ar
    16    16    17   ar
    17    17    18   ar
    18    18    19   ar
    19    19    20   ar
    20    20    21   ar
    21    21    22    2
    22     6    23    1
    23    23    24   ar
    24    24    25   ar
    25    25    26   ar
    26    26    27   ar
    27    27    28   ar
    28    22     1    1
    29    28    23   ar
    30    21     3   ar
    31     8     4   ar
    32    20     9   ar
    33    14    10   ar
    34    19    15   ar
    35     1    29    1
    36     1    30    1
    37     2    31    1
    38     5    32    1
    39    16    33    1
    40    17    34    1
    41    18    35    1
    42    22    36    1
    43    24    37    1
    44    25    38    1
    45    26    39    1
    46    28    40    1
