@<TRIPOS>MOLECULE
*****
 45 52 0 0 0
SMALL
GASTEIGER

@<TRIPOS>ATOM
      1 C          -1.6906    2.3718    2.6776 C.3     1  UNL1       -0.0148
      2 C          -0.2545    1.9914    2.4982 C.2     1  UNL1       -0.0719
      3 C          -0.1414    1.1873    1.4316 C.ar    1  UNL1       -0.0129
      4 C           1.0234    0.7383    0.7525 C.ar    1  UNL1       -0.0022
      5 C           2.3841    0.8587    1.1426 C.ar    1  UNL1       -0.0385
      6 C           3.2386    0.3251    0.1964 C.ar    1  UNL1        0.0241
      7 S           2.3756   -0.2753   -1.1584 S.2     1  UNL1       -0.0875
      8 C           0.8611    0.1366   -0.4844 C.ar    1  UNL1        0.0282
      9 C          -0.4507   -0.1531   -1.1206 C.ar    1  UNL1       -0.0024
     10 C          -0.5518   -0.6742   -2.4148 C.ar    1  UNL1       -0.0523
     11 C          -1.7933   -1.0040   -2.9639 C.ar    1  UNL1       -0.0534
     12 C          -2.9722   -0.9258   -2.2197 C.ar    1  UNL1       -0.0166
     13 C          -4.1970   -1.3670   -2.8531 C.ar    1  UNL1       -0.0533
     14 C          -5.4594   -1.4518   -2.2311 C.ar    1  UNL1       -0.0504
     15 C          -5.3395   -1.1020   -0.9017 C.ar    1  UNL1        0.0205
     16 C          -6.3311   -1.1918    0.0373 C.ar    1  UNL1        0.0994
     17 O          -5.8181   -0.8812    1.2627 O.2     1  UNL1       -0.4698
     18 C          -4.4937   -0.5890    1.0877 C.ar    1  UNL1        0.1000
     19 C          -4.1596   -0.6362   -0.2444 C.ar    1  UNL1        0.0281
     20 C          -2.8850   -0.4380   -0.8622 C.ar    1  UNL1        0.0011
     21 C          -1.6397    0.0803   -0.3653 C.ar    1  UNL1       -0.0010
     22 C          -1.4658    0.9078    0.8627 C.ar    1  UNL1       -0.0129
     23 C          -2.3543    1.6664    1.5306 C.2     1  UNL1       -0.0719
     24 C           4.6906    0.2818    0.2136 C.ar    1  UNL1        0.0350
     25 C           5.4955    1.4204    0.3253 C.ar    1  UNL1        0.0380
     26 N           6.8678    1.4767    0.3649 N.ar    1  UNL1       -0.2604
     27 C           7.6127    0.3345    0.2945 C.ar    1  UNL1        0.0557
     28 C           6.9356   -0.8974    0.1908 C.ar    1  UNL1        0.1185
     29 N           7.4994   -2.1143    0.1211 N.ar    1  UNL1       -0.1892
     30 S           6.2500   -3.2030    0.0276 S.2     1  UNL1        0.1165
     31 N           4.9455   -2.1823    0.0748 N.ar    1  UNL1       -0.1900
     32 C           5.4270   -0.9277    0.1528 C.ar    1  UNL1        0.1110
     33 H          -1.8203    3.4551    2.5962 H       1  UNL1        0.0350
     34 H          -2.0811    2.0241    3.6382 H       1  UNL1        0.0350
     35 H           0.5562    2.3966    3.0831 H       1  UNL1        0.0581
     36 H           2.7231    1.3049    2.0696 H       1  UNL1        0.0635
     37 H           0.3317   -0.8258   -3.0300 H       1  UNL1        0.0624
     38 H          -1.8116   -1.3812   -3.9857 H       1  UNL1        0.0624
     39 H          -4.1504   -1.6860   -3.8974 H       1  UNL1        0.0624
     40 H          -6.3505   -1.8100   -2.7253 H       1  UNL1        0.0625
     41 H          -7.3721   -1.4817    0.0260 H       1  UNL1        0.1035
     42 H          -3.9556   -0.4010    2.0048 H       1  UNL1        0.1036
     43 H          -3.3960    1.8078    1.2891 H       1  UNL1        0.0581
     44 H           5.0279    2.4042    0.3842 H       1  UNL1        0.0836
     45 H           8.6899    0.4297    0.3272 H       1  UNL1        0.0852
@<TRIPOS>BOND
     1     1     2    1
     2     2     3    2
     3     3     4   ar
     4     4     5   ar
     5     5     6   ar
     6     6     7   ar
     7     7     8   ar
     8     8     9   ar
     9     9    10   ar
    10    10    11   ar
    11    11    12   ar
    12    12    13   ar
    13    13    14   ar
    14    14    15   ar
    15    15    16   ar
    16    16    17   ar
    17    17    18   ar
    18    18    19   ar
    19    19    20   ar
    20    20    21   ar
    21    21    22   ar
    22    22    23    2
    23     6    24    1
    24    24    25   ar
    25    25    26   ar
    26    26    27   ar
    27    27    28   ar
    28    28    29   ar
    29    29    30   ar
    30    30    31   ar
    31    31    32   ar
    32    23     1    1
    33    32    24   ar
    34    22     3   ar
    35    32    28   ar
    36     8     4   ar
    37    21     9   ar
    38    20    12   ar
    39    19    15   ar
    40     1    33    1
    41     1    34    1
    42     2    35    1
    43     5    36    1
    44    10    37    1
    45    11    38    1
    46    13    39    1
    47    14    40    1
    48    16    41    1
    49    18    42    1
    50    23    43    1
    51    25    44    1
    52    27    45    1
