@<TRIPOS>MOLECULE
*****
 44 51 0 0 0
SMALL
GASTEIGER

@<TRIPOS>ATOM
      1 C           1.1203   -2.9929    1.9848 C.3     1  UNL1       -0.0148
      2 C          -0.2076   -2.3159    1.8510 C.2     1  UNL1       -0.0719
      3 C          -0.0826   -1.2548    1.0418 C.ar    1  UNL1       -0.0129
      4 C          -1.0852   -0.4319    0.4600 C.ar    1  UNL1       -0.0022
      5 C          -2.4766   -0.3850    0.7389 C.ar    1  UNL1       -0.0385
      6 C          -3.1436    0.5208   -0.0686 C.ar    1  UNL1        0.0241
      7 S          -2.0506    1.2855   -1.1570 S.2     1  UNL1       -0.0875
      8 C          -0.7067    0.4268   -0.5560 C.ar    1  UNL1        0.0297
      9 C           0.6855    0.6084   -1.0252 C.ar    1  UNL1        0.0157
     10 C           1.0290    1.3885   -2.1166 C.ar    1  UNL1        0.0371
     11 N           2.2962    1.6064   -2.5380 N.ar    1  UNL1       -0.2543
     12 C           3.3120    1.1359   -1.8095 C.ar    1  UNL1        0.0722
     13 C           4.6009    1.4709   -2.2958 C.ar    1  UNL1       -0.0351
     14 C           5.8312    1.1716   -1.6764 C.ar    1  UNL1       -0.0515
     15 C           5.6269    0.5509   -0.4550 C.ar    1  UNL1       -0.0102
     16 C           6.6737    0.2685    0.3877 C.ar    1  UNL1       -0.0166
     17 S           6.1093   -0.3551    1.8809 S.2     1  UNL1       -0.1039
     18 C           4.4673   -0.2283    1.3864 C.ar    1  UNL1       -0.0160
     19 C           4.3385    0.1707    0.0750 C.ar    1  UNL1       -0.0011
     20 C           3.0908    0.3658   -0.6179 C.ar    1  UNL1        0.0169
     21 C           1.7427   -0.0218   -0.3183 C.ar    1  UNL1        0.0018
     22 C           1.3188   -1.0914    0.6308 C.ar    1  UNL1       -0.0128
     23 C           2.0001   -2.1497    1.1069 C.2     1  UNL1       -0.0719
     24 C          -4.5641    0.8604   -0.1031 C.ar    1  UNL1        0.0350
     25 C          -5.0796    2.1479   -0.3101 C.ar    1  UNL1        0.0380
     26 N          -6.3987    2.5357   -0.3487 N.ar    1  UNL1       -0.2604
     27 C          -7.3965    1.6230   -0.1746 C.ar    1  UNL1        0.0557
     28 C          -7.0359    0.2800    0.0482 C.ar    1  UNL1        0.1185
     29 N          -7.8777   -0.7483    0.2405 N.ar    1  UNL1       -0.1892
     30 S          -6.9327   -2.0958    0.4422 S.2     1  UNL1        0.1165
     31 N          -5.4192   -1.4349    0.3059 N.ar    1  UNL1       -0.1900
     32 C          -5.5783   -0.1152    0.0872 C.ar    1  UNL1        0.1110
     33 H           1.4706   -2.9881    3.0208 H       1  UNL1        0.0350
     34 H           1.0729   -4.0216    1.6154 H       1  UNL1        0.0350
     35 H          -1.1281   -2.7001    2.2626 H       1  UNL1        0.0581
     36 H          -2.9706   -0.9870    1.4925 H       1  UNL1        0.0635
     37 H           0.2792    1.8776   -2.7321 H       1  UNL1        0.0836
     38 H           4.6413    2.0294   -3.2341 H       1  UNL1        0.0639
     39 H           6.7850    1.4682   -2.0911 H       1  UNL1        0.0624
     40 H           7.7327    0.4254    0.2333 H       1  UNL1        0.0699
     41 H           3.7026   -0.4500    2.1153 H       1  UNL1        0.0700
     42 H           3.0232   -2.4136    0.8883 H       1  UNL1        0.0581
     43 H          -4.3980    2.9875   -0.4532 H       1  UNL1        0.0836
     44 H          -8.4186    1.9754   -0.2151 H       1  UNL1        0.0852
@<TRIPOS>BOND
     1     1     2    1
     2     2     3    2
     3     3     4   ar
     4     4     5   ar
     5     5     6   ar
     6     6     7   ar
     7     7     8   ar
     8     8     9   ar
     9     9    10   ar
    10    10    11   ar
    11    11    12   ar
    12    12    13   ar
    13    13    14   ar
    14    14    15   ar
    15    15    16   ar
    16    16    17   ar
    17    17    18   ar
    18    18    19   ar
    19    19    20   ar
    20    20    21   ar
    21    21    22   ar
    22    22    23    2
    23     6    24    1
    24    24    25   ar
    25    25    26   ar
    26    26    27   ar
    27    27    28   ar
    28    28    29   ar
    29    29    30   ar
    30    30    31   ar
    31    31    32   ar
    32    23     1    1
    33    32    24   ar
    34    22     3   ar
    35    32    28   ar
    36     8     4   ar
    37    21     9   ar
    38    20    12   ar
    39    19    15   ar
    40     1    33    1
    41     1    34    1
    42     2    35    1
    43     5    36    1
    44    10    37    1
    45    13    38    1
    46    14    39    1
    47    16    40    1
    48    18    41    1
    49    23    42    1
    50    25    43    1
    51    27    44    1
