@<TRIPOS>MOLECULE
*****
 40 46 0 0 0
SMALL
GASTEIGER

@<TRIPOS>ATOM
      1 C          -1.5987   -2.4445    2.6821 C.3     1  UNL1       -0.0148
      2 C          -2.9554   -1.9640    2.2577 C.2     1  UNL1       -0.0719
      3 C          -2.8189   -1.0527    1.2860 C.ar    1  UNL1       -0.0119
      4 C          -3.7930   -0.3116    0.5625 C.ar    1  UNL1        0.0077
      5 C          -5.2001   -0.2753    0.6106 C.ar    1  UNL1       -0.0361
      6 C          -5.6048    0.6449   -0.3372 C.ar    1  UNL1        0.0028
      7 N          -4.4863    1.1596   -0.9501 N.ar    1  UNL1       -0.3601
      8 C          -3.3681    0.5820   -0.4083 C.ar    1  UNL1        0.0571
      9 C          -1.9700    0.8303   -0.7567 C.ar    1  UNL1        0.0383
     10 C          -1.5679    1.7531   -1.7568 C.ar    1  UNL1        0.1104
     11 N          -2.3526    2.5340   -2.5341 N.ar    1  UNL1       -0.1901
     12 S          -1.3282    3.4154   -3.5288 S.2     1  UNL1        0.1165
     13 N           0.1671    2.8492   -3.0222 N.ar    1  UNL1       -0.1900
     14 C          -0.1654    1.9793   -2.0822 C.ar    1  UNL1        0.1113
     15 C           0.7981    1.2298   -1.3491 C.ar    1  UNL1        0.0495
     16 C           2.1881    1.2320   -1.4368 C.ar    1  UNL1       -0.0062
     17 C           2.6243    0.3082   -0.4871 C.ar    1  UNL1        0.1327
     18 O           1.5064   -0.2227    0.1429 O.2     1  UNL1       -0.4544
     19 C           0.3798    0.3444   -0.3874 C.ar    1  UNL1        0.1462
     20 C          -0.9574    0.1042   -0.0514 C.ar    1  UNL1        0.0366
     21 C          -1.3894   -0.8537    0.9877 C.ar    1  UNL1       -0.0098
     22 C          -0.6756   -1.6577    1.7938 C.2     1  UNL1       -0.0718
     23 C           3.9568   -0.0691   -0.1700 C.2     1  UNL1       -0.0014
     24 C           4.2272   -0.9832    0.7796 C.2     1  UNL1       -0.0551
     25 C           5.6507   -1.1727    0.8925 C.2     1  UNL1       -0.0650
     26 C           6.2757   -0.3778    0.0139 C.2     1  UNL1       -0.0796
     27 C           5.2612    0.4134   -0.7602 C.3     1  UNL1       -0.0057
     28 H          -1.4895   -3.5190    2.5085 H       1  UNL1        0.0350
     29 H          -1.4139   -2.2205    3.7369 H       1  UNL1        0.0350
     30 H          -3.8870   -2.3080    2.6786 H       1  UNL1        0.0581
     31 H          -5.8534   -0.8474    1.2555 H       1  UNL1        0.0639
     32 H          -6.5913    0.9787   -0.6294 H       1  UNL1        0.0807
     33 H          -4.4756    1.8559   -1.6869 H       1  UNL1        0.1654
     34 H           2.8158    1.8174   -2.0942 H       1  UNL1        0.0662
     35 H           0.3993   -1.7478    1.8230 H       1  UNL1        0.0581
     36 H           3.5069   -1.5143    1.3852 H       1  UNL1        0.0621
     37 H           6.1190   -1.8554    1.5854 H       1  UNL1        0.0615
     38 H           7.3440   -0.3087   -0.1247 H       1  UNL1        0.0575
     39 H           5.3232    0.1872   -1.8292 H       1  UNL1        0.0357
     40 H           5.3987    1.4873   -0.5993 H       1  UNL1        0.0357
@<TRIPOS>BOND
     1     1     2    1
     2     2     3    2
     3     3     4   ar
     4     4     5   ar
     5     5     6   ar
     6     6     7   ar
     7     7     8   ar
     8     8     9   ar
     9     9    10   ar
    10    10    11   ar
    11    11    12   ar
    12    12    13   ar
    13    13    14   ar
    14    14    15   ar
    15    15    16   ar
    16    16    17   ar
    17    17    18   ar
    18    18    19   ar
    19    19    20   ar
    20    20    21   ar
    21    21    22    2
    22    17    23    1
    23    23    24    2
    24    24    25    1
    25    25    26    2
    26    26    27    1
    27    22     1    1
    28    27    23    1
    29    21     3   ar
    30     8     4   ar
    31    20     9   ar
    32    14    10   ar
    33    19    15   ar
    34     1    28    1
    35     1    29    1
    36     2    30    1
    37     5    31    1
    38     6    32    1
    39     7    33    1
    40    16    34    1
    41    22    35    1
    42    24    36    1
    43    25    37    1
    44    26    38    1
    45    27    39    1
    46    27    40    1
