@<TRIPOS>MOLECULE
*****
 39 44 0 0 0
SMALL
GASTEIGER

@<TRIPOS>ATOM
      1 C          -3.8932   -1.6657   -3.0753 C.3     1  UNL1        0.0000
      2 C          -4.6375   -0.9100   -2.0152 C.2     1  UNL1        0.0000
      3 C          -3.7612   -0.3895   -1.1466 C.ar    1  UNL1        0.0000
      4 C          -3.9600    0.3978    0.0153 C.ar    1  UNL1        0.0000
      5 C          -5.1210    0.8914    0.6406 C.ar    1  UNL1        0.0000
      6 C          -4.6994    1.6002    1.7465 C.ar    1  UNL1        0.0000
      7 N          -3.3258    1.5444    1.7997 N.ar    1  UNL1        0.0000
      8 C          -2.8524    0.8086    0.7423 C.ar    1  UNL1        0.0000
      9 C          -1.4508    0.4943    0.4103 C.ar    1  UNL1        0.0000
     10 C          -0.3782    0.9428    1.1904 C.ar    1  UNL1        0.0000
     11 C           0.9153    0.5999    0.8047 C.ar    1  UNL1        0.0000
     12 SI          2.5530    1.0402    1.6287 Si      1  UNL1        0.0000
     13 C           3.4305    0.0780    0.2722 C.2     1  UNL1        0.0000
     14 C           2.5799   -0.4624   -0.6236 C.2     1  UNL1        0.0000
     15 C           1.1587   -0.1838   -0.3472 C.ar    1  UNL1        0.0000
     16 C           0.1000   -0.6340   -1.1284 C.ar    1  UNL1        0.0000
     17 C          -1.2117   -0.3016   -0.7604 C.ar    1  UNL1        0.0000
     18 C          -2.3938   -0.7446   -1.5433 C.ar    1  UNL1        0.0000
     19 C          -2.4580   -1.4865   -2.6632 C.2     1  UNL1        0.0000
     20 C           4.8421   -0.0396    0.2367 C.ar    1  UNL1        0.0000
     21 C           5.6661   -0.7002   -0.6730 C.ar    1  UNL1        0.0000
     22 C           7.0104   -0.5208   -0.2694 C.ar    1  UNL1        0.0000
     23 C           6.9577    0.2401    0.8679 C.ar    1  UNL1        0.0000
     24 O           5.6738    0.5333    1.1798 O.2     1  UNL1        0.0000
     25 H          -4.0738   -1.2367   -4.0654 H       1  UNL1        0.0000
     26 H          -4.1726   -2.7234   -3.0750 H       1  UNL1        0.0000
     27 H          -5.7104   -0.8093   -1.9712 H       1  UNL1        0.0000
     28 H          -6.1477    0.7527    0.3300 H       1  UNL1        0.0000
     29 H          -5.2562    2.1396    2.5007 H       1  UNL1        0.0000
     30 H          -2.7577    1.9810    2.5117 H       1  UNL1        0.0000
     31 H          -0.5395    1.5449    2.0779 H       1  UNL1        0.0000
     32 H           2.6544    0.4202    2.9765 H       1  UNL1        0.0000
     33 H           2.7930    2.5070    1.5859 H       1  UNL1        0.0000
     34 H           2.8629   -1.0542   -1.4834 H       1  UNL1        0.0000
     35 H           0.2960   -1.2345   -2.0101 H       1  UNL1        0.0000
     36 H          -1.6271   -1.9049   -3.2084 H       1  UNL1        0.0000
     37 H           5.3276   -1.2536   -1.5378 H       1  UNL1        0.0000
     38 H           7.9018   -0.8992   -0.7486 H       1  UNL1        0.0000
     39 H           7.7051    0.6379    1.5398 H       1  UNL1        0.0000
@<TRIPOS>BOND
     1     1     2    1
     2     2     3    2
     3     3     4   ar
     4     4     5   ar
     5     5     6   ar
     6     6     7   ar
     7     7     8   ar
     8     8     9   ar
     9     9    10   ar
    10    10    11   ar
    11    11    12    1
    12    12    13    1
    13    13    14    2
    14    14    15    1
    15    15    16   ar
    16    16    17   ar
    17    17    18   ar
    18    18    19    2
    19    13    20    1
    20    20    21   ar
    21    21    22   ar
    22    22    23   ar
    23    23    24   ar
    24    19     1    1
    25    24    20   ar
    26    18     3   ar
    27     8     4   ar
    28    17     9   ar
    29    15    11   ar
    30     1    25    1
    31     1    26    1
    32     2    27    1
    33     5    28    1
    34     6    29    1
    35     7    30    1
    36    10    31    1
    37    12    32    1
    38    12    33    1
    39    14    34    1
    40    16    35    1
    41    19    36    1
    42    21    37    1
    43    22    38    1
    44    23    39    1
