@<TRIPOS>MOLECULE
*****
 42 48 0 0 0
SMALL
GASTEIGER

@<TRIPOS>ATOM
      1 C          -5.0633   -1.1102   -2.8918 C.3     1  UNL1        0.0000
      2 C          -5.6161   -0.3000   -1.7570 C.2     1  UNL1        0.0000
      3 C          -4.6242    0.0108   -0.9129 C.ar    1  UNL1        0.0000
      4 C          -4.6270    0.7509    0.2959 C.ar    1  UNL1        0.0000
      5 C          -5.6507    1.4005    1.0113 C.ar    1  UNL1        0.0000
      6 C          -5.0574    1.9573    2.1255 C.ar    1  UNL1        0.0000
      7 N          -3.7143    1.6602    2.0967 N.ar    1  UNL1        0.0000
      8 C          -3.4302    0.9190    0.9770 C.ar    1  UNL1        0.0000
      9 C          -2.1245    0.3852    0.5467 C.ar    1  UNL1        0.0000
     10 C          -0.9537    0.5953    1.2848 C.ar    1  UNL1        0.0000
     11 C           0.2578    0.0535    0.8086 C.ar    1  UNL1        0.0000
     12 S           1.8060    0.1871    1.5492 S.2     1  UNL1        0.0000
     13 C           2.5758   -0.7162    0.3207 C.ar    1  UNL1        0.0000
     14 C           1.6659   -1.1238   -0.6335 C.ar    1  UNL1        0.0000
     15 C           0.3240   -0.6848   -0.3723 C.ar    1  UNL1        0.0000
     16 C          -0.8676   -0.8907   -1.1097 C.ar    1  UNL1        0.0000
     17 C          -2.0855   -0.3618   -0.6596 C.ar    1  UNL1        0.0000
     18 C          -3.3589   -0.5507   -1.4000 C.ar    1  UNL1        0.0000
     19 C          -3.6015   -1.2045   -2.5498 C.2     1  UNL1        0.0000
     20 C           3.9879   -0.9989    0.3529 C.ar    1  UNL1        0.0000
     21 S           4.5832   -2.5916   -0.0023 S.2     1  UNL1        0.0000
     22 C           6.2318   -2.1417    0.2330 C.ar    1  UNL1        0.0000
     23 C           6.3270   -0.8178    0.5621 C.ar    1  UNL1        0.0000
     24 C           7.4783   -0.0108    0.8280 C.2     1  UNL1        0.0000
     25 C           7.2118    1.2834    1.1074 C.2     1  UNL1        0.0000
     26 SI          5.3295    1.6299    1.0599 Si      1  UNL1        0.0000
     27 C           5.0529   -0.1876    0.6293 C.ar    1  UNL1        0.0000
     28 H          -5.5227   -2.1023   -2.9280 H       1  UNL1        0.0000
     29 H          -5.2104   -0.6002   -3.8483 H       1  UNL1        0.0000
     30 H          -6.6519   -0.0194   -1.6497 H       1  UNL1        0.0000
     31 H          -6.6997    1.4610    0.7546 H       1  UNL1        0.0000
     32 H          -5.4732    2.5385    2.9374 H       1  UNL1        0.0000
     33 H          -3.0448    1.9465    2.7970 H       1  UNL1        0.0000
     34 H          -0.9583    1.1615    2.2092 H       1  UNL1        0.0000
     35 H           1.9420   -1.7126   -1.5004 H       1  UNL1        0.0000
     36 H          -0.8202   -1.4657   -2.0295 H       1  UNL1        0.0000
     37 H          -2.8819   -1.7277   -3.1591 H       1  UNL1        0.0000
     38 H           7.0192   -2.8716    0.1087 H       1  UNL1        0.0000
     39 H           8.4831   -0.4167    0.8023 H       1  UNL1        0.0000
     40 H           7.9139    2.0686    1.3362 H       1  UNL1        0.0000
     41 H           5.0029    2.5727   -0.0389 H       1  UNL1        0.0000
     42 H           4.8450    2.0255    2.4060 H       1  UNL1        0.0000
@<TRIPOS>BOND
     1     1     2    1
     2     2     3    2
     3     3     4   ar
     4     4     5   ar
     5     5     6   ar
     6     6     7   ar
     7     7     8   ar
     8     8     9   ar
     9     9    10   ar
    10    10    11   ar
    11    11    12   ar
    12    12    13   ar
    13    13    14   ar
    14    14    15   ar
    15    15    16   ar
    16    16    17   ar
    17    17    18   ar
    18    18    19    2
    19    13    20    1
    20    20    21   ar
    21    21    22   ar
    22    22    23   ar
    23    23    24    1
    24    24    25    2
    25    25    26    1
    26    26    27    1
    27    19     1    1
    28    27    20   ar
    29    18     3   ar
    30    27    23   ar
    31     8     4   ar
    32    17     9   ar
    33    15    11   ar
    34     1    28    1
    35     1    29    1
    36     2    30    1
    37     5    31    1
    38     6    32    1
    39     7    33    1
    40    10    34    1
    41    14    35    1
    42    16    36    1
    43    19    37    1
    44    22    38    1
    45    24    39    1
    46    25    40    1
    47    26    41    1
    48    26    42    1
