@<TRIPOS>MOLECULE
*****
 37 42 0 0 0
SMALL
GASTEIGER

@<TRIPOS>ATOM
      1 C           3.8259   -2.4871   -0.5540 C.3     1  UNL1       -0.0148
      2 C           4.5295   -1.1652   -0.5106 C.2     1  UNL1       -0.0719
      3 C           3.6252   -0.1887   -0.3612 C.ar    1  UNL1       -0.0120
      4 C           3.7968    1.2199   -0.2686 C.ar    1  UNL1        0.0082
      5 C           4.9210    2.0676   -0.2971 C.ar    1  UNL1       -0.0361
      6 C           4.4456    3.3597   -0.1607 C.ar    1  UNL1        0.0028
      7 N           3.0729    3.3117   -0.0516 N.ar    1  UNL1       -0.3597
      8 C           2.6722    2.0083   -0.1165 C.ar    1  UNL1        0.0616
      9 C           1.3446    1.4654   -0.0481 C.ar    1  UNL1        0.0449
     10 S          -0.0659    2.3694    0.1376 S.2     1  UNL1       -0.0861
     11 C          -1.0526    0.9548    0.1109 C.ar    1  UNL1        0.0211
     12 C          -2.4608    0.9289    0.2247 C.ar    1  UNL1       -0.0392
     13 C          -3.1433   -0.2939    0.1878 C.ar    1  UNL1       -0.0102
     14 C          -2.4077   -1.4683    0.0467 C.ar    1  UNL1       -0.0529
     15 C          -1.0105   -1.4397   -0.0674 C.ar    1  UNL1       -0.0523
     16 C          -0.2942   -0.2163   -0.0381 C.ar    1  UNL1       -0.0024
     17 C           1.1123    0.0955   -0.1324 C.ar    1  UNL1        0.0063
     18 C           2.2639   -0.7689   -0.2931 C.ar    1  UNL1       -0.0123
     19 C           2.3792   -2.1017   -0.4052 C.2     1  UNL1       -0.0719
     20 C          -4.6053   -0.3561    0.3169 C.ar    1  UNL1        0.0194
     21 C          -5.3667   -1.1986    1.1077 C.ar    1  UNL1       -0.0469
     22 C          -6.7673   -0.9803    0.9569 C.ar    1  UNL1       -0.0541
     23 C          -7.0359    0.0174    0.0485 C.ar    1  UNL1       -0.0237
     24 S          -5.6082    0.6819   -0.6150 S.2     1  UNL1       -0.0967
     25 H           4.1464   -3.1313    0.2701 H       1  UNL1        0.0350
     26 H           3.9999   -2.9948   -1.5073 H       1  UNL1        0.0350
     27 H           5.5973   -1.0344   -0.5892 H       1  UNL1        0.0581
     28 H           5.9594    1.7842   -0.4040 H       1  UNL1        0.0639
     29 H           4.9635    4.3089   -0.1319 H       1  UNL1        0.0807
     30 H           2.4580    4.1073    0.0584 H       1  UNL1        0.1654
     31 H          -3.0031    1.8627    0.3510 H       1  UNL1        0.0635
     32 H          -2.9123   -2.4319    0.0095 H       1  UNL1        0.0624
     33 H          -0.4898   -2.3837   -0.1813 H       1  UNL1        0.0624
     34 H           1.5868   -2.8289   -0.3966 H       1  UNL1        0.0581
     35 H          -4.9375   -1.9358    1.7757 H       1  UNL1        0.0629
     36 H          -7.5365   -1.5276    1.4877 H       1  UNL1        0.0623
     37 H          -8.0028    0.3896   -0.2610 H       1  UNL1        0.0693
@<TRIPOS>BOND
     1     1     2    1
     2     2     3    2
     3     3     4   ar
     4     4     5   ar
     5     5     6   ar
     6     6     7   ar
     7     7     8   ar
     8     8     9   ar
     9     9    10   ar
    10    10    11   ar
    11    11    12   ar
    12    12    13   ar
    13    13    14   ar
    14    14    15   ar
    15    15    16   ar
    16    16    17   ar
    17    17    18   ar
    18    18    19    2
    19    13    20    1
    20    20    21   ar
    21    21    22   ar
    22    22    23   ar
    23    23    24   ar
    24    19     1    1
    25    24    20   ar
    26    18     3   ar
    27     8     4   ar
    28    17     9   ar
    29    16    11   ar
    30     1    25    1
    31     1    26    1
    32     2    27    1
    33     5    28    1
    34     6    29    1
    35     7    30    1
    36    12    31    1
    37    14    32    1
    38    15    33    1
    39    19    34    1
    40    21    35    1
    41    22    36    1
    42    23    37    1
