@<TRIPOS>MOLECULE
*****
 44 50 0 0 0
SMALL
GASTEIGER

@<TRIPOS>ATOM
      1 SI          0.7515   -1.1260   -1.0287 Si      1  UNL1        0.0000
      2 C           1.6320    0.2949   -0.1854 C.2     1  UNL1        0.0000
      3 C           0.7856    1.1351    0.4447 C.2     1  UNL1        0.0000
      4 C          -0.6465    0.7507    0.3628 C.ar    1  UNL1        0.0000
      5 C          -0.8477   -0.4316   -0.3928 C.ar    1  UNL1        0.0000
      6 C          -2.1320   -0.9393   -0.5806 C.ar    1  UNL1        0.0000
      7 N          -2.5623   -2.0506   -1.2647 N.ar    1  UNL1        0.0000
      8 C          -3.9244   -2.1350   -1.1642 C.ar    1  UNL1        0.0000
      9 C          -4.9453   -3.0085   -1.6236 C.ar    1  UNL1        0.0000
     10 C          -6.1727   -2.5608   -1.1876 C.ar    1  UNL1        0.0000
     11 S          -6.1023   -1.1241   -0.2475 S.2     1  UNL1        0.0000
     12 C          -4.3722   -1.0837   -0.4194 C.ar    1  UNL1        0.0000
     13 C          -3.2414   -0.2858   -0.0230 C.ar    1  UNL1        0.0000
     14 C          -3.0449    0.9108    0.7434 C.ar    1  UNL1        0.0000
     15 C          -4.1509    1.5807    1.3117 C.ar    1  UNL1        0.0000
     16 C          -3.9797    2.7449    2.0600 C.ar    1  UNL1        0.0000
     17 C          -2.7059    3.2610    2.2554 C.ar    1  UNL1        0.0000
     18 C          -1.5980    2.6148    1.7024 C.ar    1  UNL1        0.0000
     19 C          -1.7338    1.4335    0.9379 C.ar    1  UNL1        0.0000
     20 C           3.0637    0.4769   -0.2878 C.ar    1  UNL1        0.0000
     21 C           3.6924    1.5089   -1.0289 C.ar    1  UNL1        0.0000
     22 C           5.1191    1.6780   -1.1271 C.ar    1  UNL1        0.0000
     23 C           6.0653    0.8422   -0.4902 C.ar    1  UNL1        0.0000
     24 C           5.4263   -0.1498    0.2419 C.ar    1  UNL1        0.0000
     25 C           6.0431   -1.1129    0.9972 C.ar    1  UNL1        0.0000
     26 N           5.0439   -1.8702    1.5713 N.ar    1  UNL1        0.0000
     27 C           3.8043   -1.3998    1.1874 C.ar    1  UNL1        0.0000
     28 C           4.0131   -0.3328    0.3466 C.ar    1  UNL1        0.0000
     29 H           1.0434   -2.4604   -0.4404 H       1  UNL1        0.0000
     30 H           0.8247   -1.0856   -2.5129 H       1  UNL1        0.0000
     31 H           1.1091    2.0231    0.9695 H       1  UNL1        0.0000
     32 H          -2.0008   -2.7214   -1.7728 H       1  UNL1        0.0000
     33 H          -4.7986   -3.8954   -2.2260 H       1  UNL1        0.0000
     34 H          -7.1374   -3.0124   -1.3752 H       1  UNL1        0.0000
     35 H          -5.1609    1.2063    1.1800 H       1  UNL1        0.0000
     36 H          -4.8435    3.2456    2.4891 H       1  UNL1        0.0000
     37 H          -2.5691    4.1677    2.8388 H       1  UNL1        0.0000
     38 H          -0.6194    3.0517    1.8809 H       1  UNL1        0.0000
     39 H           3.0639    2.2206   -1.5658 H       1  UNL1        0.0000
     40 H           5.4898    2.5071   -1.7308 H       1  UNL1        0.0000
     41 H           7.1337    0.9819   -0.5673 H       1  UNL1        0.0000
     42 H           7.0839   -1.3309    1.1931 H       1  UNL1        0.0000
     43 H           5.1963   -2.6514    2.1958 H       1  UNL1        0.0000
     44 H           2.9047   -1.8678    1.5627 H       1  UNL1        0.0000
@<TRIPOS>BOND
     1     1     2    1
     2     2     3    2
     3     3     4    1
     4     4     5   ar
     5     5     6   ar
     6     6     7   ar
     7     7     8   ar
     8     8     9   ar
     9     9    10   ar
    10    10    11   ar
    11    11    12   ar
    12    12    13   ar
    13    13    14   ar
    14    14    15   ar
    15    15    16   ar
    16    16    17   ar
    17    17    18   ar
    18    18    19   ar
    19     2    20    1
    20    20    21   ar
    21    21    22   ar
    22    22    23   ar
    23    23    24   ar
    24    24    25   ar
    25    25    26   ar
    26    26    27   ar
    27    27    28   ar
    28     5     1    1
    29    13     6   ar
    30    19    14   ar
    31    28    20   ar
    32    19     4   ar
    33    28    24   ar
    34    12     8   ar
    35     1    29    1
    36     1    30    1
    37     3    31    1
    38     7    32    1
    39     9    33    1
    40    10    34    1
    41    15    35    1
    42    16    36    1
    43    17    37    1
    44    18    38    1
    45    21    39    1
    46    22    40    1
    47    23    41    1
    48    25    42    1
    49    26    43    1
    50    27    44    1
