@<TRIPOS>MOLECULE
*****
 47 53 0 0 0
SMALL
GASTEIGER

@<TRIPOS>ATOM
      1 SI         -2.4269   -3.9020   -0.4083 Si      1  UNL1        0.0000
      2 C          -3.4953   -2.4035   -0.1155 C.2     1  UNL1        0.0000
      3 C          -2.7598   -1.2772    0.0011 C.ar    1  UNL1        0.0000
      4 C          -3.2946    0.0649    0.2459 C.ar    1  UNL1        0.0000
      5 C          -2.4208    1.0839    0.4048 C.ar    1  UNL1        0.0000
      6 C          -0.9517    0.9165    0.3166 C.ar    1  UNL1        0.0000
      7 C          -0.1436    2.0494    0.4907 C.ar    1  UNL1        0.0000
      8 C           1.2341    1.8684    0.3884 C.ar    1  UNL1        0.0000
      9 O           2.1513    2.8583    0.5280 O.2     1  UNL1        0.0000
     10 C           3.3759    2.2959    0.3613 C.ar    1  UNL1        0.0000
     11 C           4.5719    3.0028    0.4345 C.ar    1  UNL1        0.0000
     12 C           5.7466    2.2755    0.2394 C.ar    1  UNL1        0.0000
     13 C           5.7235    0.8978   -0.0179 C.ar    1  UNL1        0.0000
     14 C           6.9217    0.1929   -0.2094 C.ar    1  UNL1        0.0000
     15 C           6.9147   -1.1788   -0.4659 C.ar    1  UNL1        0.0000
     16 C           5.7089   -1.8681   -0.5353 C.ar    1  UNL1        0.0000
     17 C           4.5028   -1.1899   -0.3487 C.ar    1  UNL1        0.0000
     18 C           4.4858    0.1973   -0.0879 C.ar    1  UNL1        0.0000
     19 C           3.2710    0.9293    0.1098 C.ar    1  UNL1        0.0000
     20 C           1.8580    0.6541    0.1284 C.ar    1  UNL1        0.0000
     21 C           1.0297   -0.4768   -0.0425 C.ar    1  UNL1        0.0000
     22 C          -0.3719   -0.3476    0.0521 C.ar    1  UNL1        0.0000
     23 C          -1.2942   -1.4975   -0.1076 C.ar    1  UNL1        0.0000
     24 C          -0.9351   -2.7806   -0.3260 C.2     1  UNL1        0.0000
     25 C          -4.7330    0.4085    0.3156 C.ar    1  UNL1        0.0000
     26 C          -5.5772    0.1640   -0.7657 C.ar    1  UNL1        0.0000
     27 C          -6.9190    0.5228   -0.6660 C.ar    1  UNL1        0.0000
     28 C          -7.3779    1.1189    0.5019 C.ar    1  UNL1        0.0000
     29 C          -6.4706    1.3379    1.5247 C.ar    1  UNL1        0.0000
     30 N          -5.1637    1.0040    1.4561 N.ar    1  UNL1        0.0000
     31 H          -2.4715   -4.8699    0.7137 H       1  UNL1        0.0000
     32 H          -2.6218   -4.4797   -1.7601 H       1  UNL1        0.0000
     33 H          -4.5665   -2.5010   -0.0416 H       1  UNL1        0.0000
     34 H          -2.7853    2.0905    0.5975 H       1  UNL1        0.0000
     35 H          -0.5542    3.0311    0.6956 H       1  UNL1        0.0000
     36 H           4.5836    4.0676    0.6344 H       1  UNL1        0.0000
     37 H           6.6957    2.8064    0.2923 H       1  UNL1        0.0000
     38 H           7.8785    0.7089   -0.1598 H       1  UNL1        0.0000
     39 H           7.8531   -1.7081   -0.6110 H       1  UNL1        0.0000
     40 H           5.7050   -2.9368   -0.7347 H       1  UNL1        0.0000
     41 H           3.5849   -1.7613   -0.4099 H       1  UNL1        0.0000
     42 H           1.4732   -1.4423   -0.2447 H       1  UNL1        0.0000
     43 H           0.0548   -3.1915   -0.4294 H       1  UNL1        0.0000
     44 H          -5.1975   -0.2910   -1.6747 H       1  UNL1        0.0000
     45 H          -7.5974    0.3416   -1.4946 H       1  UNL1        0.0000
     46 H          -8.4164    1.4103    0.6122 H       1  UNL1        0.0000
     47 H          -6.7789    1.8040    2.4561 H       1  UNL1        0.0000
@<TRIPOS>BOND
     1     1     2    1
     2     2     3    2
     3     3     4   ar
     4     4     5   ar
     5     5     6   ar
     6     6     7   ar
     7     7     8   ar
     8     8     9   ar
     9     9    10   ar
    10    10    11   ar
    11    11    12   ar
    12    12    13   ar
    13    13    14   ar
    14    14    15   ar
    15    15    16   ar
    16    16    17   ar
    17    17    18   ar
    18    18    19   ar
    19    19    20   ar
    20    20    21   ar
    21    21    22   ar
    22    22    23   ar
    23    23    24    2
    24     4    25    1
    25    25    26   ar
    26    26    27   ar
    27    27    28   ar
    28    28    29   ar
    29    29    30   ar
    30    24     1    1
    31    30    25   ar
    32    23     3   ar
    33    22     6   ar
    34    20     8   ar
    35    19    10   ar
    36    18    13   ar
    37     1    31    1
    38     1    32    1
    39     2    33    1
    40     5    34    1
    41     7    35    1
    42    11    36    1
    43    12    37    1
    44    14    38    1
    45    15    39    1
    46    16    40    1
    47    17    41    1
    48    21    42    1
    49    24    43    1
    50    26    44    1
    51    27    45    1
    52    28    46    1
    53    29    47    1
