@<TRIPOS>MOLECULE
*****
 39 44 0 0 0
SMALL
GASTEIGER

@<TRIPOS>ATOM
      1 C          -4.0003   -2.8296    0.2629 C.3     1  UNL1       -0.0148
      2 C          -4.8180   -1.5766    0.1791 C.2     1  UNL1       -0.0719
      3 C          -3.9997   -0.5203    0.0895 C.ar    1  UNL1       -0.0120
      4 C          -4.2923    0.8679   -0.0111 C.ar    1  UNL1        0.0082
      5 C          -5.4888    1.6094   -0.0518 C.ar    1  UNL1       -0.0361
      6 C          -5.1259    2.9402   -0.1563 C.ar    1  UNL1        0.0028
      7 N          -3.7505    3.0186   -0.1794 N.ar    1  UNL1       -0.3597
      8 C          -3.2369    1.7568   -0.0911 C.ar    1  UNL1        0.0616
      9 C          -1.8639    1.3368   -0.0768 C.ar    1  UNL1        0.0449
     10 S          -0.5291    2.3625   -0.1707 S.2     1  UNL1       -0.0860
     11 C           0.5739    1.0383   -0.0851 C.ar    1  UNL1        0.0240
     12 C           1.9765    1.1288   -0.1096 C.ar    1  UNL1       -0.0213
     13 C           2.7053   -0.0509   -0.0302 C.ar    1  UNL1        0.0720
     14 N           2.0778   -1.2461    0.0674 N.ar    1  UNL1       -0.2543
     15 C           0.7254   -1.3309    0.0908 C.ar    1  UNL1        0.0371
     16 C          -0.0856   -0.1918    0.0155 C.ar    1  UNL1        0.0157
     17 C          -1.5155   -0.0071    0.0197 C.ar    1  UNL1        0.0078
     18 C          -2.5901   -0.9737    0.1058 C.ar    1  UNL1       -0.0123
     19 C          -2.5879   -2.3124    0.2063 C.2     1  UNL1       -0.0719
     20 C           4.1939   -0.1088   -0.0447 C.ar    1  UNL1        0.0004
     21 C           4.8651   -1.3474    0.0393 C.ar    1  UNL1       -0.0526
     22 C           6.2613   -1.4402    0.0286 C.ar    1  UNL1       -0.0611
     23 C           7.0331   -0.2893   -0.0670 C.ar    1  UNL1       -0.0617
     24 C           6.4077    0.9492   -0.1515 C.ar    1  UNL1       -0.0611
     25 C           5.0090    1.0367   -0.1404 C.ar    1  UNL1       -0.0526
     26 H          -4.1861   -3.3592    1.2020 H       1  UNL1        0.0350
     27 H          -4.2085   -3.4931   -0.5816 H       1  UNL1        0.0350
     28 H          -5.8962   -1.5450    0.1903 H       1  UNL1        0.0581
     29 H          -6.5017    1.2318   -0.0108 H       1  UNL1        0.0639
     30 H          -5.7259    3.8383   -0.2161 H       1  UNL1        0.0807
     31 H          -3.2064    3.8684   -0.2501 H       1  UNL1        0.1654
     32 H           2.4461    2.0998   -0.1884 H       1  UNL1        0.0650
     33 H           0.3372   -2.3376    0.1713 H       1  UNL1        0.0836
     34 H          -1.7343   -2.9663    0.2447 H       1  UNL1        0.0581
     35 H           4.2916   -2.2707    0.1154 H       1  UNL1        0.0624
     36 H           6.7378   -2.4147    0.0953 H       1  UNL1        0.0618
     37 H           8.1174   -0.3574   -0.0755 H       1  UNL1        0.0618
     38 H           7.0057    1.8540   -0.2265 H       1  UNL1        0.0618
     39 H           4.5790    2.0314   -0.2091 H       1  UNL1        0.0624
@<TRIPOS>BOND
     1     1     2    1
     2     2     3    2
     3     3     4   ar
     4     4     5   ar
     5     5     6   ar
     6     6     7   ar
     7     7     8   ar
     8     8     9   ar
     9     9    10   ar
    10    10    11   ar
    11    11    12   ar
    12    12    13   ar
    13    13    14   ar
    14    14    15   ar
    15    15    16   ar
    16    16    17   ar
    17    17    18   ar
    18    18    19    2
    19    13    20    1
    20    20    21   ar
    21    21    22   ar
    22    22    23   ar
    23    23    24   ar
    24    24    25   ar
    25    19     1    1
    26    25    20   ar
    27    18     3   ar
    28     8     4   ar
    29    17     9   ar
    30    16    11   ar
    31     1    26    1
    32     1    27    1
    33     2    28    1
    34     5    29    1
    35     6    30    1
    36     7    31    1
    37    12    32    1
    38    15    33    1
    39    19    34    1
    40    21    35    1
    41    22    36    1
    42    23    37    1
    43    24    38    1
    44    25    39    1
