@<TRIPOS>MOLECULE
*****
 47 54 0 0 0
SMALL
GASTEIGER

@<TRIPOS>ATOM
      1 C          -0.6548   -4.2630   -0.6282 C.3     1  UNL1        0.0000
      2 C          -1.9112   -3.4481   -0.6561 C.2     1  UNL1        0.0000
      3 C          -1.6301   -2.1646   -0.3701 C.ar    1  UNL1        0.0000
      4 C          -2.5414   -1.0182   -0.2191 C.ar    1  UNL1        0.0000
      5 C          -3.9380   -1.1928   -0.2800 C.ar    1  UNL1        0.0000
      6 C          -4.7743   -0.1340    0.0345 C.ar    1  UNL1        0.0000
      7 C          -6.2450   -0.1868    0.0295 C.2     1  UNL1        0.0000
      8 C          -6.8319    0.9560    0.4293 C.2     1  UNL1        0.0000
      9 SI         -5.5959    2.2962    0.8840 Si      1  UNL1        0.0000
     10 C          -4.2214    1.0923    0.4440 C.ar    1  UNL1        0.0000
     11 C          -2.8396    1.2764    0.4983 C.ar    1  UNL1        0.0000
     12 C          -1.9589    0.2515    0.0966 C.ar    1  UNL1        0.0000
     13 C          -0.4720    0.4149    0.0937 C.ar    1  UNL1        0.0000
     14 C           0.2687    1.6235    0.0500 C.ar    1  UNL1        0.0000
     15 C          -0.2502    2.8589   -0.2743 C.ar    1  UNL1        0.0000
     16 S           0.9168    4.1128   -0.2147 S.2     1  UNL1        0.0000
     17 C           2.1746    3.0063    0.1263 C.ar    1  UNL1        0.0000
     18 C           1.7193    1.7078    0.2040 C.ar    1  UNL1        0.0000
     19 C           2.5740    0.6027    0.3725 C.ar    1  UNL1        0.0000
     20 C           1.8466   -0.6100    0.2793 C.ar    1  UNL1        0.0000
     21 C           0.4220   -0.7132    0.1116 C.ar    1  UNL1        0.0000
     22 C          -0.1962   -2.0305   -0.1423 C.ar    1  UNL1        0.0000
     23 C           0.3818   -3.2365   -0.2864 C.2     1  UNL1        0.0000
     24 C           4.0140    0.6763    0.5629 C.ar    1  UNL1        0.0000
     25 N           4.5171    1.5515    1.4994 N.ar    1  UNL1        0.0000
     26 C           5.8609    1.6534    1.7436 C.ar    1  UNL1        0.0000
     27 C           6.8833    0.9406    1.1299 C.ar    1  UNL1        0.0000
     28 C           6.4246    0.0288    0.1622 C.ar    1  UNL1        0.0000
     29 N           7.2070   -0.7782   -0.5719 N.ar    1  UNL1        0.0000
     30 S           6.1957   -1.6443   -1.5612 S.2     1  UNL1        0.0000
     31 N           4.7216   -1.0446   -1.0969 N.ar    1  UNL1        0.0000
     32 C           4.9560   -0.1240   -0.1423 C.ar    1  UNL1        0.0000
     33 H          -0.7057   -5.0429    0.1371 H       1  UNL1        0.0000
     34 H          -0.4561   -4.7152   -1.6043 H       1  UNL1        0.0000
     35 H          -2.8830   -3.8699   -0.8575 H       1  UNL1        0.0000
     36 H          -4.3711   -2.1538   -0.5360 H       1  UNL1        0.0000
     37 H          -6.7783   -1.0786   -0.2712 H       1  UNL1        0.0000
     38 H          -7.8932    1.1367    0.5024 H       1  UNL1        0.0000
     39 H          -5.6335    2.6268    2.3303 H       1  UNL1        0.0000
     40 H          -5.6602    3.4563   -0.0397 H       1  UNL1        0.0000
     41 H          -2.4642    2.2128    0.8977 H       1  UNL1        0.0000
     42 H          -1.2504    3.1315   -0.5729 H       1  UNL1        0.0000
     43 H           3.1843    3.3808    0.2220 H       1  UNL1        0.0000
     44 H           2.4200   -1.5355    0.3349 H       1  UNL1        0.0000
     45 H           1.4325   -3.4680   -0.2123 H       1  UNL1        0.0000
     46 H           6.1076    2.3864    2.5120 H       1  UNL1        0.0000
     47 H           7.9282    1.0715    1.3711 H       1  UNL1        0.0000
@<TRIPOS>BOND
     1     1     2    1
     2     2     3    2
     3     3     4   ar
     4     4     5   ar
     5     5     6   ar
     6     6     7    1
     7     7     8    2
     8     8     9    1
     9     9    10    1
    10    10    11   ar
    11    11    12   ar
    12    12    13   ar
    13    13    14   ar
    14    14    15   ar
    15    15    16   ar
    16    16    17   ar
    17    17    18   ar
    18    18    19   ar
    19    19    20   ar
    20    20    21   ar
    21    21    22   ar
    22    22    23    2
    23    19    24    1
    24    24    25   ar
    25    25    26   ar
    26    26    27   ar
    27    27    28   ar
    28    28    29   ar
    29    29    30   ar
    30    30    31   ar
    31    31    32   ar
    32    23     1    1
    33    32    24   ar
    34    22     3   ar
    35    32    28   ar
    36    12     4   ar
    37    21    13   ar
    38    10     6   ar
    39    18    14   ar
    40     1    33    1
    41     1    34    1
    42     2    35    1
    43     5    36    1
    44     7    37    1
    45     8    38    1
    46     9    39    1
    47     9    40    1
    48    11    41    1
    49    15    42    1
    50    17    43    1
    51    20    44    1
    52    23    45    1
    53    26    46    1
    54    27    47    1
