@<TRIPOS>MOLECULE
*****
 41 47 0 0 0
SMALL
GASTEIGER

@<TRIPOS>ATOM
      1 C          -0.2470   -4.3231   -0.5159 C.3     1  UNL1       -0.0148
      2 C          -1.3776   -3.3372   -0.4882 C.2     1  UNL1       -0.0719
      3 C          -0.8941   -2.0920   -0.3398 C.ar    1  UNL1       -0.0134
      4 C          -1.6046   -0.8037   -0.2580 C.ar    1  UNL1       -0.0078
      5 C          -3.0085   -0.7208   -0.3333 C.ar    1  UNL1       -0.0456
      6 C          -3.6802    0.5072   -0.2550 C.ar    1  UNL1       -0.0151
      7 C          -5.0999    0.5591   -0.3341 C.ar    1  UNL1       -0.0519
      8 C          -5.8517    1.7471   -0.2644 C.ar    1  UNL1       -0.0329
      9 C          -5.1154    2.9419   -0.1058 C.ar    1  UNL1        0.1005
     10 N          -5.6398    4.1739   -0.0184 N.ar    1  UNL1       -0.1908
     11 S          -4.3594    5.2157    0.1578 S.2     1  UNL1        0.1165
     12 N          -3.0869    4.1529    0.1309 N.ar    1  UNL1       -0.1902
     13 C          -3.6107    2.9225   -0.0185 C.ar    1  UNL1        0.1076
     14 C          -2.8931    1.6795   -0.0956 C.ar    1  UNL1        0.0109
     15 C          -1.4851    1.6020   -0.0196 C.ar    1  UNL1       -0.0421
     16 C          -0.8163    0.3678   -0.0987 C.ar    1  UNL1        0.0093
     17 C           0.6723    0.2886   -0.0181 C.ar    1  UNL1        0.0793
     18 N           1.3313    1.4654    0.1341 N.ar    1  UNL1       -0.2537
     19 C           2.6861    1.4255    0.2105 C.ar    1  UNL1        0.0380
     20 C           3.4588    0.2683    0.1448 C.ar    1  UNL1        0.0258
     21 C           2.7589   -0.9340   -0.0122 C.ar    1  UNL1       -0.0408
     22 C           1.3592   -0.9379   -0.0954 C.ar    1  UNL1        0.0090
     23 C           0.5611   -2.1565   -0.2598 C.ar    1  UNL1       -0.0120
     24 C           0.9536   -3.4377   -0.3597 C.2     1  UNL1       -0.0719
     25 C           4.9236    0.3765    0.2419 C.ar    1  UNL1        0.1097
     26 N           5.5649    1.5218    0.3913 N.ar    1  UNL1       -0.2473
     27 C           6.9277    1.3119    0.4513 C.ar    1  UNL1        0.0354
     28 C           7.3288    0.0005    0.3472 C.ar    1  UNL1       -0.0042
     29 S           5.9576   -1.0059    0.1682 S.2     1  UNL1       -0.0756
     30 H          -0.3233   -5.0343    0.3117 H       1  UNL1        0.0350
     31 H          -0.2179   -4.8634   -1.4666 H       1  UNL1        0.0350
     32 H          -2.4134   -3.6245   -0.5771 H       1  UNL1        0.0581
     33 H          -3.5904   -1.6315   -0.4554 H       1  UNL1        0.0630
     34 H          -5.6555   -0.3727   -0.4567 H       1  UNL1        0.0624
     35 H          -6.9331    1.7513   -0.3281 H       1  UNL1        0.0640
     36 H          -0.9107    2.5205    0.1028 H       1  UNL1        0.0631
     37 H           3.1516    2.4025    0.3320 H       1  UNL1        0.0836
     38 H           3.2918   -1.8773   -0.0713 H       1  UNL1        0.0631
     39 H           1.9658   -3.8099   -0.3355 H       1  UNL1        0.0581
     40 H           7.5897    2.1608    0.5731 H       1  UNL1        0.0835
     41 H           8.3316   -0.4008    0.3673 H       1  UNL1        0.0709
@<TRIPOS>BOND
     1     1     2    1
     2     2     3    2
     3     3     4   ar
     4     4     5   ar
     5     5     6   ar
     6     6     7   ar
     7     7     8   ar
     8     8     9   ar
     9     9    10   ar
    10    10    11   ar
    11    11    12   ar
    12    12    13   ar
    13    13    14   ar
    14    14    15   ar
    15    15    16   ar
    16    16    17   ar
    17    17    18   ar
    18    18    19   ar
    19    19    20   ar
    20    20    21   ar
    21    21    22   ar
    22    22    23   ar
    23    23    24    2
    24    20    25    1
    25    25    26   ar
    26    26    27   ar
    27    27    28   ar
    28    28    29   ar
    29    24     1    1
    30    29    25   ar
    31    23     3   ar
    32    16     4   ar
    33    22    17   ar
    34    14     6   ar
    35    13     9   ar
    36     1    30    1
    37     1    31    1
    38     2    32    1
    39     5    33    1
    40     7    34    1
    41     8    35    1
    42    15    36    1
    43    19    37    1
    44    21    38    1
    45    24    39    1
    46    27    40    1
    47    28    41    1
