@<TRIPOS>MOLECULE
*****
 47 54 0 0 0
SMALL
GASTEIGER

@<TRIPOS>ATOM
      1 C          -3.9756    3.1712    2.0368 C.3     1  UNL1        0.0000
      2 C          -4.5464    1.8536    1.6066 C.2     1  UNL1        0.0000
      3 C          -3.5931    1.1041    1.0239 C.ar    1  UNL1        0.0000
      4 C          -3.7115   -0.2072    0.3853 C.ar    1  UNL1        0.0000
      5 C          -4.9898   -0.9540    0.4067 C.ar    1  UNL1        0.0000
      6 C          -5.1936   -2.1091   -0.2450 C.ar    1  UNL1        0.0000
      7 C          -4.1369   -2.6187   -1.0764 C.ar    1  UNL1        0.0000
      8 C          -4.2692   -3.6789   -1.8947 C.2     1  UNL1        0.0000
      9 SI         -2.7510   -3.8892   -2.9504 Si      1  UNL1        0.0000
     10 C          -2.0336   -2.3775   -2.1106 C.2     1  UNL1        0.0000
     11 C          -2.8398   -1.8998   -1.1366 C.ar    1  UNL1        0.0000
     12 C          -2.6027   -0.7242   -0.2489 C.ar    1  UNL1        0.0000
     13 C          -1.2394   -0.0693   -0.0313 C.ar    1  UNL1        0.0000
     14 C          -0.0511   -0.7852   -0.2756 C.ar    1  UNL1        0.0000
     15 C           1.1653   -0.1235   -0.1135 C.ar    1  UNL1        0.0000
     16 O           2.3895   -0.6588   -0.3535 O.2     1  UNL1        0.0000
     17 C           3.3418    0.2975   -0.0806 C.ar    1  UNL1        0.0000
     18 C           2.6846    1.4479    0.3333 C.ar    1  UNL1        0.0000
     19 C           1.2907    1.1805    0.3205 C.ar    1  UNL1        0.0000
     20 C           0.1257    1.8835    0.6579 C.ar    1  UNL1        0.0000
     21 C          -1.1244    1.2419    0.5116 C.ar    1  UNL1        0.0000
     22 C          -2.3492    1.8556    1.0276 C.ar    1  UNL1        0.0000
     23 C          -2.5464    3.0527    1.6053 C.2     1  UNL1        0.0000
     24 C           4.7435    0.0376   -0.2470 C.ar    1  UNL1        0.0000
     25 S           5.3119   -1.2465   -1.2623 S.2     1  UNL1        0.0000
     26 C           6.9671   -0.9031   -0.9523 C.ar    1  UNL1        0.0000
     27 C           7.0194    0.1399   -0.0963 C.ar    1  UNL1        0.0000
     28 C           8.0984    0.8282    0.5061 C.ar    1  UNL1        0.0000
     29 C           7.6693    1.8548    1.3528 C.ar    1  UNL1        0.0000
     30 S           5.9324    2.0717    1.4942 S.2     1  UNL1        0.0000
     31 C           5.8064    0.6910    0.3255 C.ar    1  UNL1        0.0000
     32 H          -4.0528    3.3000    3.1202 H       1  UNL1        0.0000
     33 H          -4.4737    4.0022    1.5290 H       1  UNL1        0.0000
     34 H          -5.5858    1.5953    1.7321 H       1  UNL1        0.0000
     35 H          -5.7958   -0.5557    1.0137 H       1  UNL1        0.0000
     36 H          -6.1425   -2.6297   -0.1913 H       1  UNL1        0.0000
     37 H          -5.1383   -4.3046   -2.0199 H       1  UNL1        0.0000
     38 H          -1.9990   -5.1257   -2.6275 H       1  UNL1        0.0000
     39 H          -3.0231   -3.6626   -4.3903 H       1  UNL1        0.0000
     40 H          -1.0861   -1.9944   -2.4486 H       1  UNL1        0.0000
     41 H          -0.0407   -1.8286   -0.5583 H       1  UNL1        0.0000
     42 H           3.1463    2.3830    0.6127 H       1  UNL1        0.0000
     43 H           0.2038    2.8878    1.0592 H       1  UNL1        0.0000
     44 H          -1.8095    3.8220    1.7726 H       1  UNL1        0.0000
     45 H           7.7618   -1.4813   -1.4021 H       1  UNL1        0.0000
     46 H           9.1466    0.6036    0.3504 H       1  UNL1        0.0000
     47 H           8.2966    2.5218    1.9288 H       1  UNL1        0.0000
@<TRIPOS>BOND
     1     1     2    1
     2     2     3    2
     3     3     4   ar
     4     4     5   ar
     5     5     6   ar
     6     6     7   ar
     7     7     8    2
     8     8     9    1
     9     9    10    1
    10    10    11    2
    11    11    12   ar
    12    12    13   ar
    13    13    14   ar
    14    14    15   ar
    15    15    16   ar
    16    16    17   ar
    17    17    18   ar
    18    18    19   ar
    19    19    20   ar
    20    20    21   ar
    21    21    22   ar
    22    22    23    2
    23    17    24    1
    24    24    25   ar
    25    25    26   ar
    26    26    27   ar
    27    27    28   ar
    28    28    29   ar
    29    29    30   ar
    30    30    31   ar
    31    23     1    1
    32    31    24   ar
    33    22     3   ar
    34    31    27   ar
    35    12     4   ar
    36    21    13   ar
    37    11     7   ar
    38    19    15   ar
    39     1    32    1
    40     1    33    1
    41     2    34    1
    42     5    35    1
    43     6    36    1
    44     8    37    1
    45     9    38    1
    46     9    39    1
    47    10    40    1
    48    14    41    1
    49    18    42    1
    50    20    43    1
    51    23    44    1
    52    26    45    1
    53    28    46    1
    54    29    47    1
