@<TRIPOS>MOLECULE
*****
 42 47 0 0 0
SMALL
GASTEIGER

@<TRIPOS>ATOM
      1 C          -1.4648   -0.9564   -4.1705 C.3     1  UNL1        0.0000
      2 C          -2.5327   -0.8128   -3.1281 C.2     1  UNL1        0.0000
      3 C          -1.9757   -0.5499   -1.9273 C.ar    1  UNL1        0.0000
      4 C          -2.6150   -0.4104   -0.6162 C.ar    1  UNL1        0.0000
      5 C          -4.0855   -0.4745   -0.4621 C.ar    1  UNL1        0.0000
      6 C          -4.7181   -0.4485    0.7275 C.ar    1  UNL1        0.0000
      7 C          -3.9250   -0.4430    1.9241 C.ar    1  UNL1        0.0000
      8 C          -4.4307   -0.5745    3.1665 C.2     1  UNL1        0.0000
      9 SI         -3.0652   -0.7261    4.4229 Si      1  UNL1        0.0000
     10 C          -1.8358   -0.5792    3.0136 C.2     1  UNL1        0.0000
     11 C          -2.4466   -0.3822    1.8201 C.ar    1  UNL1        0.0000
     12 C          -1.8052   -0.2269    0.4822 C.ar    1  UNL1        0.0000
     13 C          -0.3370    0.0860    0.2717 C.ar    1  UNL1        0.0000
     14 C           0.4430    0.7158    1.2358 C.ar    1  UNL1        0.0000
     15 N           1.7718    0.9838    1.1304 N.ar    1  UNL1        0.0000
     16 C           2.3983    0.6490   -0.0256 C.ar    1  UNL1        0.0000
     17 C           1.6848    0.1098   -1.0958 C.ar    1  UNL1        0.0000
     18 C           0.3127   -0.1314   -0.9586 C.ar    1  UNL1        0.0000
     19 C          -0.5310   -0.4938   -2.0923 C.ar    1  UNL1        0.0000
     20 C          -0.2118   -0.7344   -3.3744 C.2     1  UNL1        0.0000
     21 C           3.8594    0.8958   -0.0937 C.ar    1  UNL1        0.0000
     22 C           4.5507    1.5600    0.9233 C.ar    1  UNL1        0.0000
     23 C           5.9301    1.7386    0.8188 C.ar    1  UNL1        0.0000
     24 C           6.5959    1.2504   -0.2984 C.ar    1  UNL1        0.0000
     25 C           5.8485    0.6100   -1.2699 C.ar    1  UNL1        0.0000
     26 N           4.5103    0.4271   -1.1969 N.ar    1  UNL1        0.0000
     27 H          -1.5776   -0.1982   -4.9534 H       1  UNL1        0.0000
     28 H          -1.4786   -1.9572   -4.6187 H       1  UNL1        0.0000
     29 H          -3.5828   -0.9440   -3.3428 H       1  UNL1        0.0000
     30 H          -4.6829   -0.5085   -1.3663 H       1  UNL1        0.0000
     31 H          -5.7989   -0.4824    0.7962 H       1  UNL1        0.0000
     32 H          -5.4685   -0.6655    3.4472 H       1  UNL1        0.0000
     33 H          -3.0017    0.4276    5.3517 H       1  UNL1        0.0000
     34 H          -3.0259   -2.0646    5.0634 H       1  UNL1        0.0000
     35 H          -0.7857   -0.6818    3.2260 H       1  UNL1        0.0000
     36 H           0.0163    1.0760    2.1689 H       1  UNL1        0.0000
     37 H           2.1956   -0.0873   -2.0373 H       1  UNL1        0.0000
     38 H           0.7771   -0.7349   -3.8059 H       1  UNL1        0.0000
     39 H           4.0279    1.9181    1.8063 H       1  UNL1        0.0000
     40 H           6.4747    2.2397    1.6122 H       1  UNL1        0.0000
     41 H           7.6684    1.3651   -0.4071 H       1  UNL1        0.0000
     42 H           6.3174    0.2157   -2.1677 H       1  UNL1        0.0000
@<TRIPOS>BOND
     1     1     2    1
     2     2     3    2
     3     3     4   ar
     4     4     5   ar
     5     5     6   ar
     6     6     7   ar
     7     7     8    2
     8     8     9    1
     9     9    10    1
    10    10    11    2
    11    11    12   ar
    12    12    13   ar
    13    13    14   ar
    14    14    15   ar
    15    15    16   ar
    16    16    17   ar
    17    17    18   ar
    18    18    19   ar
    19    19    20    2
    20    16    21    1
    21    21    22   ar
    22    22    23   ar
    23    23    24   ar
    24    24    25   ar
    25    25    26   ar
    26    20     1    1
    27    26    21   ar
    28    19     3   ar
    29    12     4   ar
    30    18    13   ar
    31    11     7   ar
    32     1    27    1
    33     1    28    1
    34     2    29    1
    35     5    30    1
    36     6    31    1
    37     8    32    1
    38     9    33    1
    39     9    34    1
    40    10    35    1
    41    14    36    1
    42    17    37    1
    43    20    38    1
    44    22    39    1
    45    23    40    1
    46    24    41    1
    47    25    42    1
