@<TRIPOS>MOLECULE
*****
 51 58 0 0 0
SMALL
GASTEIGER

@<TRIPOS>ATOM
      1 C          -1.1890   -4.4859    0.7095 C.3     1  UNL1       -0.0148
      2 C          -2.3400   -3.5845    1.0391 C.2     1  UNL1       -0.0719
      3 C          -2.0458   -2.3203    0.6874 C.ar    1  UNL1       -0.0135
      4 C          -2.9023   -1.1204    0.7088 C.ar    1  UNL1       -0.0093
      5 C          -4.2172   -1.1741    1.1788 C.ar    1  UNL1       -0.0528
      6 C          -5.0749   -0.0992    0.9806 C.ar    1  UNL1       -0.0534
      7 C          -4.6703    0.9988    0.2183 C.ar    1  UNL1       -0.0173
      8 C          -5.6074    2.0007   -0.0883 C.ar    1  UNL1       -0.0540
      9 C          -5.2802    3.0579   -0.9325 C.ar    1  UNL1       -0.0612
     10 C          -4.0168    3.1111   -1.4980 C.ar    1  UNL1       -0.0611
     11 C          -3.0723    2.1301   -1.1818 C.ar    1  UNL1       -0.0534
     12 C          -3.3392    1.0748   -0.2723 C.ar    1  UNL1       -0.0096
     13 C          -2.3902    0.0700    0.1154 C.ar    1  UNL1       -0.0013
     14 C          -0.9153    0.1549   -0.1179 C.ar    1  UNL1        0.0002
     15 C          -0.1028    1.3067   -0.0753 C.ar    1  UNL1        0.0083
     16 C          -0.4362    2.5666    0.3700 C.ar    1  UNL1        0.0100
     17 N           0.6756    3.3704    0.2534 N.ar    1  UNL1       -0.3659
     18 C           1.7482    2.6297   -0.1810 C.ar    1  UNL1        0.0100
     19 C           1.3065    1.3401   -0.3592 C.ar    1  UNL1        0.0082
     20 C           2.0839    0.2285   -0.6865 C.ar    1  UNL1       -0.0013
     21 C           1.3386   -0.9634   -0.5737 C.ar    1  UNL1       -0.0446
     22 C          -0.0698   -1.0076   -0.2581 C.ar    1  UNL1       -0.0086
     23 C          -0.7014   -2.2869    0.1200 C.ar    1  UNL1       -0.0135
     24 C          -0.1948   -3.5323    0.1191 C.2     1  UNL1       -0.0719
     25 C           3.5063    0.2723   -0.9455 C.ar    1  UNL1        0.0240
     26 S           4.1047    0.9353   -2.4291 S.2     1  UNL1       -0.0958
     27 C           5.7545    0.6191   -2.0170 C.ar    1  UNL1       -0.0163
     28 C           5.8065    0.0216   -0.7953 C.ar    1  UNL1       -0.0142
     29 C           6.8252   -0.4682    0.0580 C.2     1  UNL1       -0.0574
     30 C           6.2602   -0.9715    1.1797 C.2     1  UNL1       -0.0791
     31 C           4.7325   -0.8408    1.1427 C.3     1  UNL1       -0.0075
     32 C           4.5496   -0.1843   -0.1829 C.ar    1  UNL1       -0.0217
     33 H          -0.7919   -4.9639    1.6098 H       1  UNL1        0.0350
     34 H          -1.4811   -5.2502   -0.0165 H       1  UNL1        0.0350
     35 H          -3.2704   -3.9418    1.4510 H       1  UNL1        0.0581
     36 H          -4.5994   -2.0591    1.6784 H       1  UNL1        0.0624
     37 H          -6.0933   -0.1681    1.3569 H       1  UNL1        0.0624
     38 H          -6.6187    1.9491    0.3103 H       1  UNL1        0.0624
     39 H          -6.0205    3.8161   -1.1714 H       1  UNL1        0.0618
     40 H          -3.7597    3.9058   -2.1932 H       1  UNL1        0.0618
     41 H          -2.1109    2.1852   -1.6883 H       1  UNL1        0.0624
     42 H          -1.3529    2.9782    0.7703 H       1  UNL1        0.0813
     43 H           0.7094    4.3508    0.5012 H       1  UNL1        0.1648
     44 H           2.7250    3.0836   -0.2829 H       1  UNL1        0.0813
     45 H           1.8800   -1.9002   -0.6954 H       1  UNL1        0.0630
     46 H           0.7859   -3.8340   -0.2125 H       1  UNL1        0.0581
     47 H           6.5559    0.8861   -2.6906 H       1  UNL1        0.0699
     48 H           7.8830   -0.4392   -0.1613 H       1  UNL1        0.0621
     49 H           6.7987   -1.4116    2.0056 H       1  UNL1        0.0575
     50 H           4.2580   -1.8253    1.1798 H       1  UNL1        0.0356
     51 H           4.3764   -0.2108    1.9625 H       1  UNL1        0.0356
@<TRIPOS>BOND
     1     1     2    1
     2     2     3    2
     3     3     4   ar
     4     4     5   ar
     5     5     6   ar
     6     6     7   ar
     7     7     8   ar
     8     8     9   ar
     9     9    10   ar
    10    10    11   ar
    11    11    12   ar
    12    12    13   ar
    13    13    14   ar
    14    14    15   ar
    15    15    16   ar
    16    16    17   ar
    17    17    18   ar
    18    18    19   ar
    19    19    20   ar
    20    20    21   ar
    21    21    22   ar
    22    22    23   ar
    23    23    24    2
    24    20    25    1
    25    25    26   ar
    26    26    27   ar
    27    27    28   ar
    28    28    29    1
    29    29    30    2
    30    30    31    1
    31    31    32    1
    32    24     1    1
    33    32    25   ar
    34    23     3   ar
    35    32    28   ar
    36    13     4   ar
    37    22    14   ar
    38    12     7   ar
    39    19    15   ar
    40     1    33    1
    41     1    34    1
    42     2    35    1
    43     5    36    1
    44     6    37    1
    45     8    38    1
    46     9    39    1
    47    10    40    1
    48    11    41    1
    49    16    42    1
    50    17    43    1
    51    18    44    1
    52    21    45    1
    53    24    46    1
    54    27    47    1
    55    29    48    1
    56    30    49    1
    57    31    50    1
    58    31    51    1
