@<TRIPOS>MOLECULE
*****
 46 52 0 0 0
SMALL
GASTEIGER

@<TRIPOS>ATOM
      1 C          -3.2444    4.0454   -0.9159 C.3     1  UNL1       -0.0148
      2 C          -3.9167    2.7063   -0.8748 C.2     1  UNL1       -0.0719
      3 C          -3.0153    1.7526   -0.5811 C.ar    1  UNL1       -0.0135
      4 C          -3.2126    0.3155   -0.3378 C.ar    1  UNL1       -0.0093
      5 C          -4.4739   -0.2706   -0.4744 C.ar    1  UNL1       -0.0528
      6 C          -4.6819   -1.5860   -0.0813 C.ar    1  UNL1       -0.0534
      7 C          -3.6663   -2.3089    0.5462 C.ar    1  UNL1       -0.0173
      8 C          -3.9565   -3.5940    1.0367 C.ar    1  UNL1       -0.0540
      9 C          -3.0129   -4.3214    1.7547 C.ar    1  UNL1       -0.0612
     10 C          -1.7754   -3.7575    2.0127 C.ar    1  UNL1       -0.0611
     11 C          -1.4726   -2.4868    1.5126 C.ar    1  UNL1       -0.0534
     12 C          -2.3760   -1.7357    0.7135 C.ar    1  UNL1       -0.0096
     13 C          -2.0999   -0.4449    0.1311 C.ar    1  UNL1       -0.0018
     14 C          -0.7052    0.1473   -0.0113 C.ar    1  UNL1       -0.0070
     15 C           0.4421   -0.6709   -0.1119 C.ar    1  UNL1       -0.0294
     16 C           1.7145   -0.0855   -0.1839 C.ar    1  UNL1        0.0475
     17 N           2.9593   -0.6670   -0.2438 N.ar    1  UNL1       -0.3537
     18 C           3.9471    0.2896   -0.2906 C.ar    1  UNL1        0.0541
     19 C           3.3084    1.5156   -0.2845 C.ar    1  UNL1       -0.0281
     20 C           1.9056    1.2879   -0.2218 C.ar    1  UNL1        0.0009
     21 C           0.7742    2.1192   -0.2377 C.ar    1  UNL1       -0.0443
     22 C          -0.5147    1.5478   -0.1748 C.ar    1  UNL1       -0.0092
     23 C          -1.7087    2.3696   -0.4168 C.ar    1  UNL1       -0.0135
     24 C          -1.8215    3.6966   -0.6007 C.2     1  UNL1       -0.0719
     25 C           5.3494   -0.0247   -0.3440 C.ar    1  UNL1        0.0355
     26 C           6.4025    0.8694   -0.3985 C.ar    1  UNL1       -0.0455
     27 C           7.6737    0.2241   -0.4422 C.ar    1  UNL1       -0.0541
     28 C           7.5546   -1.1462   -0.4194 C.ar    1  UNL1       -0.0237
     29 S           5.9221   -1.6447   -0.3458 S.2     1  UNL1       -0.0952
     30 H          -3.3301    4.4998   -1.9072 H       1  UNL1        0.0350
     31 H          -3.6613    4.7201   -0.1626 H       1  UNL1        0.0350
     32 H          -4.9764    2.5728   -1.0226 H       1  UNL1        0.0581
     33 H          -5.3132    0.2901   -0.8747 H       1  UNL1        0.0624
     34 H          -5.6733   -2.0161   -0.2074 H       1  UNL1        0.0624
     35 H          -4.9402   -4.0334    0.8817 H       1  UNL1        0.0624
     36 H          -3.2582   -5.3078    2.1381 H       1  UNL1        0.0618
     37 H          -1.0452   -4.2921    2.6144 H       1  UNL1        0.0618
     38 H          -0.5159   -2.0637    1.8084 H       1  UNL1        0.0624
     39 H           0.3604   -1.7514   -0.1623 H       1  UNL1        0.0644
     40 H           3.1325   -1.6622   -0.2424 H       1  UNL1        0.1659
     41 H           3.7915    2.4824   -0.3304 H       1  UNL1        0.0645
     42 H           0.9109    3.1897   -0.3434 H       1  UNL1        0.0630
     43 H          -1.0271    4.4249   -0.5664 H       1  UNL1        0.0581
     44 H           6.2744    1.9447   -0.4072 H       1  UNL1        0.0629
     45 H           8.6244    0.7409   -0.4879 H       1  UNL1        0.0623
     46 H           8.3478   -1.8807   -0.4424 H       1  UNL1        0.0693
@<TRIPOS>BOND
     1     1     2    1
     2     2     3    2
     3     3     4   ar
     4     4     5   ar
     5     5     6   ar
     6     6     7   ar
     7     7     8   ar
     8     8     9   ar
     9     9    10   ar
    10    10    11   ar
    11    11    12   ar
    12    12    13   ar
    13    13    14   ar
    14    14    15   ar
    15    15    16   ar
    16    16    17   ar
    17    17    18   ar
    18    18    19   ar
    19    19    20   ar
    20    20    21   ar
    21    21    22   ar
    22    22    23   ar
    23    23    24    2
    24    18    25    1
    25    25    26   ar
    26    26    27   ar
    27    27    28   ar
    28    28    29   ar
    29    24     1    1
    30    29    25   ar
    31    23     3   ar
    32    13     4   ar
    33    22    14   ar
    34    12     7   ar
    35    20    16   ar
    36     1    30    1
    37     1    31    1
    38     2    32    1
    39     5    33    1
    40     6    34    1
    41     8    35    1
    42     9    36    1
    43    10    37    1
    44    11    38    1
    45    15    39    1
    46    17    40    1
    47    19    41    1
    48    21    42    1
    49    24    43    1
    50    26    44    1
    51    27    45    1
    52    28    46    1
