@<TRIPOS>MOLECULE
*****
 48 55 0 0 0
SMALL
GASTEIGER

@<TRIPOS>ATOM
      1 C          -4.0317   -3.4600    0.9686 C.3     1  UNL1       -0.0148
      2 C          -4.7642   -2.1769    0.7196 C.2     1  UNL1       -0.0719
      3 C          -3.8873   -1.1904    0.4618 C.ar    1  UNL1       -0.0135
      4 C          -4.1278    0.2453    0.2125 C.ar    1  UNL1       -0.0092
      5 C          -5.4809    0.7637    0.2406 C.ar    1  UNL1       -0.0528
      6 C          -5.8189    2.1268    0.1334 C.ar    1  UNL1       -0.0504
      7 C          -4.6702    2.8914    0.0465 C.ar    1  UNL1        0.0205
      8 C          -4.6330    4.2588    0.0195 C.ar    1  UNL1        0.0994
      9 O          -3.3346    4.6719    0.0094 O.2     1  UNL1       -0.4698
     10 C          -2.5478    3.5527    0.0251 C.ar    1  UNL1        0.1000
     11 C          -3.3185    2.4139    0.0005 C.ar    1  UNL1        0.0281
     12 C          -2.9417    1.0551    0.0196 C.ar    1  UNL1        0.0011
     13 C          -1.5748    0.4706   -0.0918 C.ar    1  UNL1       -0.0083
     14 C          -0.4594    1.1906   -0.5596 C.ar    1  UNL1       -0.0457
     15 C           0.8365    0.6403   -0.6193 C.ar    1  UNL1       -0.0172
     16 C           1.9348    1.3950   -1.0602 C.ar    1  UNL1       -0.0534
     17 C           3.2156    0.8374   -1.1066 C.ar    1  UNL1       -0.0529
     18 C           3.4277   -0.4896   -0.7202 C.ar    1  UNL1       -0.0101
     19 C           2.3308   -1.2472   -0.2860 C.ar    1  UNL1       -0.0458
     20 C           1.0373   -0.6961   -0.2339 C.ar    1  UNL1       -0.0167
     21 C          -0.0674   -1.4558    0.1693 C.ar    1  UNL1       -0.0457
     22 C          -1.3587   -0.9000    0.2177 C.ar    1  UNL1       -0.0093
     23 C          -2.5354   -1.7342    0.5136 C.ar    1  UNL1       -0.0135
     24 C          -2.6014   -3.0445    0.8092 C.2     1  UNL1       -0.0719
     25 C           4.7726   -1.0605   -0.7629 C.ar    1  UNL1        0.0276
     26 S           5.0881   -2.5264   -1.6252 S.2     1  UNL1       -0.0949
     27 C           6.7701   -2.5103   -1.2502 C.ar    1  UNL1       -0.0094
     28 C           7.0769   -1.4184   -0.4911 C.ar    1  UNL1        0.0269
     29 S           8.6429   -0.8641    0.2034 S.2     1  UNL1       -0.0961
     30 C           7.7038    0.4708    0.8597 C.ar    1  UNL1       -0.0231
     31 C           6.3358    0.4715    0.5626 C.ar    1  UNL1       -0.0459
     32 C           5.9509   -0.6354   -0.2405 C.ar    1  UNL1        0.0040
     33 H          -4.2237   -3.8353    1.9780 H       1  UNL1        0.0350
     34 H          -4.3068   -4.2210    0.2326 H       1  UNL1        0.0350
     35 H          -5.8382   -2.0966    0.7712 H       1  UNL1        0.0581
     36 H          -6.3089    0.0679    0.3714 H       1  UNL1        0.0624
     37 H          -6.8331    2.4971    0.1722 H       1  UNL1        0.0625
     38 H          -5.3747    5.0449    0.0306 H       1  UNL1        0.1035
     39 H          -1.4922    3.7697    0.0771 H       1  UNL1        0.1036
     40 H          -0.5793    2.2005   -0.9330 H       1  UNL1        0.0630
     41 H           1.8033    2.4292   -1.3717 H       1  UNL1        0.0624
     42 H           4.0442    1.4478   -1.4596 H       1  UNL1        0.0624
     43 H           2.4831   -2.2805    0.0213 H       1  UNL1        0.0630
     44 H           0.0825   -2.5012    0.4257 H       1  UNL1        0.0630
     45 H          -1.7755   -3.7312    0.9050 H       1  UNL1        0.0581
     46 H           7.4476   -3.2806   -1.5915 H       1  UNL1        0.0705
     47 H           8.2373    1.2021    1.4516 H       1  UNL1        0.0694
     48 H           5.6641    1.2411    0.9234 H       1  UNL1        0.0629
@<TRIPOS>BOND
     1     1     2    1
     2     2     3    2
     3     3     4   ar
     4     4     5   ar
     5     5     6   ar
     6     6     7   ar
     7     7     8   ar
     8     8     9   ar
     9     9    10   ar
    10    10    11   ar
    11    11    12   ar
    12    12    13   ar
    13    13    14   ar
    14    14    15   ar
    15    15    16   ar
    16    16    17   ar
    17    17    18   ar
    18    18    19   ar
    19    19    20   ar
    20    20    21   ar
    21    21    22   ar
    22    22    23   ar
    23    23    24    2
    24    18    25    1
    25    25    26   ar
    26    26    27   ar
    27    27    28   ar
    28    28    29   ar
    29    29    30   ar
    30    30    31   ar
    31    31    32   ar
    32    24     1    1
    33    32    25   ar
    34    23     3   ar
    35    32    28   ar
    36    12     4   ar
    37    22    13   ar
    38    11     7   ar
    39    20    15   ar
    40     1    33    1
    41     1    34    1
    42     2    35    1
    43     5    36    1
    44     6    37    1
    45     8    38    1
    46    10    39    1
    47    14    40    1
    48    16    41    1
    49    17    42    1
    50    19    43    1
    51    21    44    1
    52    24    45    1
    53    27    46    1
    54    30    47    1
    55    31    48    1
