@<TRIPOS>MOLECULE
*****
 48 55 0 0 0
SMALL
GASTEIGER

@<TRIPOS>ATOM
      1 C          -1.3074    3.2925   -2.8272 C.3     1  UNL1       -0.0148
      2 C          -2.5950    2.7131   -2.3407 C.2     1  UNL1       -0.0719
      3 C          -2.3494    1.6651   -1.5352 C.ar    1  UNL1       -0.0135
      4 C          -3.3160    0.8272   -0.7994 C.ar    1  UNL1       -0.0092
      5 C          -4.7281    0.9271   -1.0659 C.ar    1  UNL1       -0.0528
      6 C          -5.7001    0.0615   -0.5296 C.ar    1  UNL1       -0.0529
      7 C          -5.1167   -0.9529    0.2208 C.ar    1  UNL1       -0.0103
      8 C          -5.8672   -1.9844    0.7300 C.ar    1  UNL1       -0.0166
      9 S          -4.8720   -3.1595    1.4823 S.2     1  UNL1       -0.1039
     10 C          -3.4415   -2.2818    1.1111 C.ar    1  UNL1       -0.0160
     11 C          -3.7033   -1.0668    0.5163 C.ar    1  UNL1       -0.0026
     12 C          -2.7319   -0.1234    0.1062 C.ar    1  UNL1       -0.0007
     13 C          -1.2888   -0.1319    0.3921 C.ar    1  UNL1        0.0008
     14 C          -0.6487   -0.5842    1.5548 C.ar    1  UNL1        0.0083
     15 C          -1.2164   -0.8701    2.7757 C.ar    1  UNL1        0.0100
     16 N          -0.2110   -1.2631    3.6296 N.ar    1  UNL1       -0.3659
     17 C           1.0055   -1.1748    2.9936 C.ar    1  UNL1        0.0100
     18 C           0.7655   -0.7112    1.7216 C.ar    1  UNL1        0.0078
     19 C           1.7306   -0.4101    0.7369 C.ar    1  UNL1       -0.0046
     20 C           3.1229   -0.6203    0.8528 C.ar    1  UNL1       -0.0243
     21 C           3.9301   -0.2777   -0.2176 C.ar    1  UNL1        0.1065
     22 N           3.4217    0.2314   -1.3606 N.ar    1  UNL1       -0.2512
     23 C           2.0764    0.4268   -1.4303 C.ar    1  UNL1        0.0367
     24 C           1.1380    0.1738   -0.4193 C.ar    1  UNL1        0.0092
     25 C          -0.3102    0.4338   -0.5111 C.ar    1  UNL1       -0.0001
     26 C          -0.8989    1.4455   -1.4441 C.ar    1  UNL1       -0.0128
     27 C          -0.2949    2.4197   -2.1518 C.2     1  UNL1       -0.0719
     28 C           5.3791   -0.4614   -0.1799 C.ar    1  UNL1        0.1529
     29 C           6.2683   -0.9529    0.7603 C.ar    1  UNL1       -0.0144
     30 C           7.5625   -0.8665    0.1896 C.ar    1  UNL1       -0.0233
     31 C           7.3900   -0.3284   -1.0622 C.ar    1  UNL1        0.0926
     32 O           6.0773   -0.0799   -1.2952 O.2     1  UNL1       -0.4614
     33 H          -1.2016    4.3341   -2.5097 H       1  UNL1        0.0350
     34 H          -1.2248    3.2281   -3.9159 H       1  UNL1        0.0350
     35 H          -3.5575    3.1257   -2.5971 H       1  UNL1        0.0581
     36 H          -5.0855    1.6972   -1.7482 H       1  UNL1        0.0624
     37 H          -6.7533    0.1486   -0.7605 H       1  UNL1        0.0624
     38 H          -6.9362   -2.1381    0.6749 H       1  UNL1        0.0699
     39 H          -2.4912   -2.7309    1.3592 H       1  UNL1        0.0700
     40 H          -2.2360   -0.8230    3.1342 H       1  UNL1        0.0813
     41 H          -0.3457   -1.5411    4.5936 H       1  UNL1        0.1648
     42 H           1.9149   -1.4186    3.5250 H       1  UNL1        0.0813
     43 H           3.5427   -1.0465    1.7549 H       1  UNL1        0.0646
     44 H           1.7638    0.7670   -2.4131 H       1  UNL1        0.0836
     45 H           0.7581    2.6430   -2.2068 H       1  UNL1        0.0581
     46 H           6.0175   -1.3301    1.7411 H       1  UNL1        0.0656
     47 H           8.5029   -1.1595    0.6340 H       1  UNL1        0.0649
     48 H           8.0617   -0.0722   -1.8695 H       1  UNL1        0.1029
@<TRIPOS>BOND
     1     1     2    1
     2     2     3    2
     3     3     4   ar
     4     4     5   ar
     5     5     6   ar
     6     6     7   ar
     7     7     8   ar
     8     8     9   ar
     9     9    10   ar
    10    10    11   ar
    11    11    12   ar
    12    12    13   ar
    13    13    14   ar
    14    14    15   ar
    15    15    16   ar
    16    16    17   ar
    17    17    18   ar
    18    18    19   ar
    19    19    20   ar
    20    20    21   ar
    21    21    22   ar
    22    22    23   ar
    23    23    24   ar
    24    24    25   ar
    25    25    26   ar
    26    26    27    2
    27    21    28    1
    28    28    29   ar
    29    29    30   ar
    30    30    31   ar
    31    31    32   ar
    32    27     1    1
    33    32    28   ar
    34    26     3   ar
    35    12     4   ar
    36    25    13   ar
    37    11     7   ar
    38    18    14   ar
    39    24    19   ar
    40     1    33    1
    41     1    34    1
    42     2    35    1
    43     5    36    1
    44     6    37    1
    45     8    38    1
    46    10    39    1
    47    15    40    1
    48    16    41    1
    49    17    42    1
    50    20    43    1
    51    23    44    1
    52    27    45    1
    53    29    46    1
    54    30    47    1
    55    31    48    1
