@<TRIPOS>MOLECULE
*****
 47 54 0 0 0
SMALL
GASTEIGER

@<TRIPOS>ATOM
      1 C          -2.0916    3.8231    1.4311 C.3     1  UNL1       -0.0148
      2 C          -3.3040    2.9493    1.3868 C.2     1  UNL1       -0.0719
      3 C          -2.9745    1.7324    0.9176 C.ar    1  UNL1       -0.0134
      4 C          -3.8536    0.5863    0.6257 C.ar    1  UNL1       -0.0093
      5 C          -5.2739    0.6872    0.8473 C.ar    1  UNL1       -0.0528
      6 C          -6.2102   -0.2865    0.4576 C.ar    1  UNL1       -0.0529
      7 C          -5.6022   -1.3251   -0.2363 C.ar    1  UNL1       -0.0103
      8 C          -6.3505   -2.3295   -0.8001 C.ar    1  UNL1       -0.0166
      9 S          -5.3646   -3.4080   -1.6915 S.2     1  UNL1       -0.1039
     10 C          -3.9416   -2.5162   -1.3206 C.ar    1  UNL1       -0.0160
     11 C          -4.1757   -1.4638   -0.4615 C.ar    1  UNL1       -0.0026
     12 C          -3.2042   -0.5563    0.0380 C.ar    1  UNL1       -0.0013
     13 C          -1.7174   -0.6837   -0.0250 C.ar    1  UNL1       -0.0069
     14 C          -1.0882   -1.9268   -0.1767 C.ar    1  UNL1       -0.0527
     15 C           0.2931   -2.0388   -0.2994 C.ar    1  UNL1       -0.0519
     16 C           1.1049   -0.9071   -0.2345 C.ar    1  UNL1        0.0016
     17 C           2.4984   -1.0414   -0.3876 C.ar    1  UNL1       -0.0418
     18 C           3.3549    0.0563   -0.2942 C.ar    1  UNL1        0.0212
     19 C           2.7164    1.2640   -0.0564 C.ar    1  UNL1        0.0375
     20 N           1.3771    1.4276    0.1012 N.ar    1  UNL1       -0.2537
     21 C           0.5464    0.3622    0.0132 C.ar    1  UNL1        0.0793
     22 C          -0.8657    0.4533    0.1648 C.ar    1  UNL1        0.0161
     23 C          -1.5411    1.6970    0.6261 C.ar    1  UNL1       -0.0114
     24 C          -1.0286    2.9074    0.9165 C.2     1  UNL1       -0.0719
     25 C           4.8093   -0.0087   -0.4446 C.ar    1  UNL1        0.1005
     26 N           5.4631    1.1340   -0.8596 N.ar    1  UNL1       -0.2526
     27 C           6.8211    1.1757   -1.0309 C.ar    1  UNL1        0.0304
     28 C           7.7249    0.1436   -0.8211 C.ar    1  UNL1       -0.0153
     29 C           7.1190   -1.0462   -0.3808 C.ar    1  UNL1        0.1034
     30 N           7.7734   -2.1838   -0.0986 N.ar    1  UNL1       -0.1907
     31 S           6.6297   -3.2782    0.3924 S.2     1  UNL1        0.1165
     32 N           5.2533   -2.3649    0.2593 N.ar    1  UNL1       -0.1886
     33 C           5.6254   -1.1470   -0.1793 C.ar    1  UNL1        0.1258
     34 H          -1.8748    4.1476    2.4529 H       1  UNL1        0.0350
     35 H          -2.2090    4.6965    0.7831 H       1  UNL1        0.0350
     36 H          -4.2846    3.2979    1.6673 H       1  UNL1        0.0581
     37 H          -5.6732    1.5783    1.3298 H       1  UNL1        0.0624
     38 H          -7.2732   -0.1773    0.6264 H       1  UNL1        0.0624
     39 H          -7.4213   -2.4778   -0.7680 H       1  UNL1        0.0699
     40 H          -3.0249   -2.8339   -1.7924 H       1  UNL1        0.0700
     41 H          -1.6557   -2.8524   -0.1647 H       1  UNL1        0.0624
     42 H           0.7274   -3.0275   -0.4355 H       1  UNL1        0.0624
     43 H           2.9047   -2.0296   -0.5931 H       1  UNL1        0.0631
     44 H           3.2825    2.1903    0.0260 H       1  UNL1        0.0836
     45 H           0.0028    3.2110    0.8329 H       1  UNL1        0.0581
     46 H           7.1868    2.1456   -1.3693 H       1  UNL1        0.0830
     47 H           8.7896    0.2439   -0.9744 H       1  UNL1        0.0655
@<TRIPOS>BOND
     1     1     2    1
     2     2     3    2
     3     3     4   ar
     4     4     5   ar
     5     5     6   ar
     6     6     7   ar
     7     7     8   ar
     8     8     9   ar
     9     9    10   ar
    10    10    11   ar
    11    11    12   ar
    12    12    13   ar
    13    13    14   ar
    14    14    15   ar
    15    15    16   ar
    16    16    17   ar
    17    17    18   ar
    18    18    19   ar
    19    19    20   ar
    20    20    21   ar
    21    21    22   ar
    22    22    23   ar
    23    23    24    2
    24    18    25    1
    25    25    26   ar
    26    26    27   ar
    27    27    28   ar
    28    28    29   ar
    29    29    30   ar
    30    30    31   ar
    31    31    32   ar
    32    32    33   ar
    33    24     1    1
    34    33    25   ar
    35    23     3   ar
    36    33    29   ar
    37    12     4   ar
    38    22    13   ar
    39    11     7   ar
    40    21    16   ar
    41     1    34    1
    42     1    35    1
    43     2    36    1
    44     5    37    1
    45     6    38    1
    46     8    39    1
    47    10    40    1
    48    14    41    1
    49    15    42    1
    50    17    43    1
    51    19    44    1
    52    24    45    1
    53    27    46    1
    54    28    47    1
