@<TRIPOS>MOLECULE
*****
 45 51 0 0 0
SMALL
GASTEIGER

@<TRIPOS>ATOM
      1 SI         -1.5798    3.8032    1.5167 Si      1  UNL1        0.0000
      2 C          -2.8024    2.5010    1.0238 C.2     1  UNL1        0.0000
      3 C          -2.1931    1.3806    0.5826 C.ar    1  UNL1        0.0000
      4 C          -2.9036    0.2140    0.0628 C.ar    1  UNL1        0.0000
      5 C          -2.1889   -0.8281   -0.4083 C.ar    1  UNL1        0.0000
      6 C          -0.7086   -0.8593   -0.3871 C.ar    1  UNL1        0.0000
      7 C          -0.0698   -1.9935   -0.8938 C.ar    1  UNL1        0.0000
      8 C           1.3207   -2.1068   -0.8629 C.ar    1  UNL1        0.0000
      9 C           2.0906   -1.0819   -0.2842 C.ar    1  UNL1        0.0000
     10 C           1.4452    0.0610    0.2286 C.ar    1  UNL1        0.0000
     11 N           2.4383    0.8586    0.7800 N.ar    1  UNL1        0.0000
     12 C           3.6944    0.3246    0.6028 C.ar    1  UNL1        0.0000
     13 C           4.9818    0.7965    0.9801 C.ar    1  UNL1        0.0000
     14 C           6.1425    0.0443    0.6892 C.ar    1  UNL1        0.0000
     15 C           5.8493   -1.1426    0.0300 C.ar    1  UNL1        0.0000
     16 C           6.7572   -2.0870   -0.3840 C.ar    1  UNL1        0.0000
     17 O           6.1064   -3.1303   -0.9994 O.2     1  UNL1        0.0000
     18 C           4.7605   -2.8492   -0.9792 C.ar    1  UNL1        0.0000
     19 C           4.6014   -1.6510   -0.3588 C.ar    1  UNL1        0.0000
     20 C           3.4553   -0.8674   -0.0537 C.ar    1  UNL1        0.0000
     21 C           0.0421    0.2201    0.1555 C.ar    1  UNL1        0.0000
     22 C          -0.7012    1.4212    0.6180 C.ar    1  UNL1        0.0000
     23 C          -0.2129    2.6098    1.0350 C.2     1  UNL1        0.0000
     24 C          -4.3697    0.1010   -0.0100 C.ar    1  UNL1        0.0000
     25 C          -5.0961   -0.5496    0.9898 C.ar    1  UNL1        0.0000
     26 C          -6.4831   -0.6285    0.8911 C.ar    1  UNL1        0.0000
     27 C          -7.0986   -0.0494   -0.2076 C.ar    1  UNL1        0.0000
     28 N          -6.4323    0.5910   -1.1925 N.ar    1  UNL1        0.0000
     29 C          -5.0840    0.6516   -1.0706 C.ar    1  UNL1        0.0000
     30 H          -1.5763    4.0800    2.9732 H       1  UNL1        0.0000
     31 H          -1.6067    4.9950    0.6361 H       1  UNL1        0.0000
     32 H          -3.8632    2.6915    1.0752 H       1  UNL1        0.0000
     33 H          -2.6888   -1.7041   -0.8142 H       1  UNL1        0.0000
     34 H          -0.6471   -2.8114   -1.3195 H       1  UNL1        0.0000
     35 H           1.7915   -2.9980   -1.2649 H       1  UNL1        0.0000
     36 H           2.2723    1.7115    1.2849 H       1  UNL1        0.0000
     37 H           5.0811    1.7474    1.4991 H       1  UNL1        0.0000
     38 H           7.1361    0.3747    0.9609 H       1  UNL1        0.0000
     39 H           7.8323   -2.1833   -0.3320 H       1  UNL1        0.0000
     40 H           4.1207   -3.5893   -1.4343 H       1  UNL1        0.0000
     41 H           0.7966    2.9616    1.1042 H       1  UNL1        0.0000
     42 H          -4.5867   -0.9901    1.8430 H       1  UNL1        0.0000
     43 H          -7.0695   -1.1285    1.6536 H       1  UNL1        0.0000
     44 H          -8.1778   -0.0857   -0.3275 H       1  UNL1        0.0000
     45 H          -4.5763    1.1747   -1.8768 H       1  UNL1        0.0000
@<TRIPOS>BOND
     1     1     2    1
     2     2     3    2
     3     3     4   ar
     4     4     5   ar
     5     5     6   ar
     6     6     7   ar
     7     7     8   ar
     8     8     9   ar
     9     9    10   ar
    10    10    11   ar
    11    11    12   ar
    12    12    13   ar
    13    13    14   ar
    14    14    15   ar
    15    15    16   ar
    16    16    17   ar
    17    17    18   ar
    18    18    19   ar
    19    19    20   ar
    20    10    21   ar
    21    21    22   ar
    22    22    23    2
    23     4    24    1
    24    24    25   ar
    25    25    26   ar
    26    26    27   ar
    27    27    28   ar
    28    28    29   ar
    29    23     1    1
    30    29    24   ar
    31    22     3   ar
    32    21     6   ar
    33    20     9   ar
    34    20    12   ar
    35    19    15   ar
    36     1    30    1
    37     1    31    1
    38     2    32    1
    39     5    33    1
    40     7    34    1
    41     8    35    1
    42    11    36    1
    43    13    37    1
    44    14    38    1
    45    16    39    1
    46    18    40    1
    47    23    41    1
    48    25    42    1
    49    26    43    1
    50    27    44    1
    51    29    45    1
