@<TRIPOS>MOLECULE
*****
 50 57 0 0 0
SMALL
GASTEIGER

@<TRIPOS>ATOM
      1 C          -1.7549   -4.3298    0.0168 C.3     1  UNL1       -0.0148
      2 C          -3.0785   -3.6382   -0.0201 C.2     1  UNL1       -0.0719
      3 C          -2.8958   -2.3083    0.0453 C.ar    1  UNL1       -0.0135
      4 C          -3.8970   -1.2416    0.1327 C.ar    1  UNL1       -0.0099
      5 C          -5.2620   -1.5304    0.3143 C.ar    1  UNL1       -0.0534
      6 C          -6.1684   -0.5177    0.6111 C.ar    1  UNL1       -0.0611
      7 C          -5.7084    0.7795    0.7751 C.ar    1  UNL1       -0.0611
      8 C          -4.3539    1.0705    0.5809 C.ar    1  UNL1       -0.0534
      9 C          -3.4220    0.0941    0.1689 C.ar    1  UNL1       -0.0090
     10 C          -1.9594    0.4214   -0.0888 C.ar    1  UNL1       -0.0016
     11 C          -1.5090    1.7418   -0.4911 C.ar    1  UNL1       -0.0090
     12 C          -2.3501    2.7443   -1.0463 C.ar    1  UNL1       -0.0534
     13 C          -1.9016    4.0276   -1.3720 C.ar    1  UNL1       -0.0611
     14 C          -0.5734    4.3573   -1.1794 C.ar    1  UNL1       -0.0611
     15 C           0.3052    3.3879   -0.7067 C.ar    1  UNL1       -0.0534
     16 C          -0.1323    2.0797   -0.3928 C.ar    1  UNL1       -0.0098
     17 C           0.7662    1.0794   -0.0140 C.ar    1  UNL1       -0.0129
     18 C           2.2131    1.1582    0.1862 C.2     1  UNL1       -0.0491
     19 C           2.6940   -0.0712    0.4433 C.2     1  UNL1       -0.0276
     20 C           1.5720   -1.0908    0.4446 C.3     1  UNL1       -0.0001
     21 C           0.3589   -0.2494    0.1701 C.ar    1  UNL1       -0.0270
     22 C          -0.9836   -0.6132    0.0936 C.ar    1  UNL1       -0.0052
     23 C          -1.4685   -2.0102    0.1156 C.ar    1  UNL1       -0.0132
     24 C          -0.7997   -3.1781    0.1063 C.2     1  UNL1       -0.0719
     25 C           4.0704   -0.2963    0.7041 C.ar    1  UNL1        0.0300
     26 S           4.6082   -1.3204    1.9920 S.2     1  UNL1       -0.0952
     27 C           6.2726   -1.0669    1.6404 C.ar    1  UNL1       -0.0155
     28 C           6.3500   -0.2570    0.5624 C.ar    1  UNL1       -0.0032
     29 C           7.4414    0.2597   -0.1750 C.ar    1  UNL1       -0.0465
     30 C           7.0302    1.0551   -1.2497 C.ar    1  UNL1       -0.0231
     31 S           5.2957    1.2419   -1.4628 S.2     1  UNL1       -0.0955
     32 C           5.1494    0.1876    0.0050 C.ar    1  UNL1        0.0338
     33 H          -1.6713   -4.9804    0.8921 H       1  UNL1        0.0350
     34 H          -1.5870   -4.9122   -0.8938 H       1  UNL1        0.0350
     35 H          -4.0198   -4.1627   -0.0594 H       1  UNL1        0.0581
     36 H          -5.6273   -2.5521    0.2684 H       1  UNL1        0.0624
     37 H          -7.2184   -0.7511    0.7641 H       1  UNL1        0.0618
     38 H          -6.3950    1.5689    1.0702 H       1  UNL1        0.0618
     39 H          -4.0347    2.0882    0.7930 H       1  UNL1        0.0624
     40 H          -3.3877    2.5203   -1.2844 H       1  UNL1        0.0624
     41 H          -2.5931    4.7560   -1.7868 H       1  UNL1        0.0618
     42 H          -0.2108    5.3508   -1.4276 H       1  UNL1        0.0618
     43 H           1.3533    3.6608   -0.6119 H       1  UNL1        0.0624
     44 H           2.7741    2.0781    0.1508 H       1  UNL1        0.0627
     45 H           1.4908   -1.5870    1.4165 H       1  UNL1        0.0362
     46 H           1.7452   -1.8123   -0.3595 H       1  UNL1        0.0362
     47 H           0.2641   -3.3344    0.1171 H       1  UNL1        0.0581
     48 H           7.0542   -1.5292    2.2264 H       1  UNL1        0.0700
     49 H           8.4859    0.0722    0.0424 H       1  UNL1        0.0629
     50 H           7.6687    1.5597   -1.9620 H       1  UNL1        0.0694
@<TRIPOS>BOND
     1     1     2    1
     2     2     3    2
     3     3     4   ar
     4     4     5   ar
     5     5     6   ar
     6     6     7   ar
     7     7     8   ar
     8     8     9   ar
     9     9    10   ar
    10    10    11   ar
    11    11    12   ar
    12    12    13   ar
    13    13    14   ar
    14    14    15   ar
    15    15    16   ar
    16    16    17   ar
    17    17    18    1
    18    18    19    2
    19    19    20    1
    20    20    21    1
    21    21    22   ar
    22    22    23   ar
    23    23    24    2
    24    19    25    1
    25    25    26   ar
    26    26    27   ar
    27    27    28   ar
    28    28    29   ar
    29    29    30   ar
    30    30    31   ar
    31    31    32   ar
    32    24     1    1
    33    32    25   ar
    34    23     3   ar
    35    32    28   ar
    36     9     4   ar
    37    22    10   ar
    38    16    11   ar
    39    21    17   ar
    40     1    33    1
    41     1    34    1
    42     2    35    1
    43     5    36    1
    44     6    37    1
    45     7    38    1
    46     8    39    1
    47    12    40    1
    48    13    41    1
    49    14    42    1
    50    15    43    1
    51    18    44    1
    52    20    45    1
    53    20    46    1
    54    24    47    1
    55    27    48    1
    56    29    49    1
    57    30    50    1
