@<TRIPOS>MOLECULE
*****
 44 50 0 0 0
SMALL
GASTEIGER

@<TRIPOS>ATOM
      1 C          -2.1430    3.9307    0.0047 C.3     1  UNL1       -0.0148
      2 C          -3.3141    3.0315    0.2312 C.2     1  UNL1       -0.0719
      3 C          -2.8988    1.7540    0.2705 C.ar    1  UNL1       -0.0120
      4 C          -3.7139    0.5408    0.2948 C.ar    1  UNL1        0.0084
      5 C          -5.0962    0.5452    0.5147 C.ar    1  UNL1       -0.0505
      6 C          -5.8007   -0.6513    0.4927 C.ar    1  UNL1       -0.0430
      7 C          -5.0958   -1.8129    0.2506 C.ar    1  UNL1        0.0283
      8 N          -3.7628   -1.8531    0.0395 N.ar    1  UNL1       -0.2543
      9 C          -3.0659   -0.6852    0.0573 C.ar    1  UNL1        0.0799
     10 C          -1.5911   -0.7527   -0.1026 C.ar    1  UNL1        0.0184
     11 C          -0.8399   -1.9026   -0.3999 C.ar    1  UNL1        0.0098
     12 C          -1.2978   -3.1579   -0.7308 C.ar    1  UNL1        0.0101
     13 N          -0.2103   -3.9698   -0.9460 N.ar    1  UNL1       -0.3659
     14 C           0.9489   -3.2567   -0.7591 C.ar    1  UNL1        0.0100
     15 C           0.5882   -1.9707   -0.4270 C.ar    1  UNL1        0.0078
     16 C           1.4650   -0.9097   -0.1158 C.ar    1  UNL1       -0.0075
     17 C           2.8812   -1.0201   -0.0815 C.ar    1  UNL1       -0.0451
     18 C           3.6701    0.0602    0.3114 C.ar    1  UNL1       -0.0092
     19 C           3.0182    1.2369    0.6821 C.ar    1  UNL1       -0.0529
     20 C           1.6157    1.3417    0.6356 C.ar    1  UNL1       -0.0528
     21 C           0.7665    0.2999    0.1916 C.ar    1  UNL1       -0.0089
     22 C          -0.7100    0.3911    0.0886 C.ar    1  UNL1       -0.0001
     23 C          -1.4429    1.6966    0.1320 C.ar    1  UNL1       -0.0128
     24 C          -1.0124    2.9524   -0.0960 C.2     1  UNL1       -0.0719
     25 C           5.1331   -0.0159    0.3524 C.ar    1  UNL1        0.0388
     26 C           6.0767    0.9324   -0.0073 C.ar    1  UNL1        0.0425
     27 N           7.4015    0.5784    0.1679 N.ar    1  UNL1       -0.2551
     28 C           7.4556   -0.6371    0.6630 C.ar    1  UNL1        0.0652
     29 S           5.9531   -1.4100    0.9429 S.2     1  UNL1       -0.0755
     30 H          -2.2564    4.4945   -0.9259 H       1  UNL1        0.0350
     31 H          -1.9992    4.6215    0.8403 H       1  UNL1        0.0350
     32 H          -4.3331    3.3836    0.2657 H       1  UNL1        0.0581
     33 H          -5.6316    1.4699    0.7051 H       1  UNL1        0.0625
     34 H          -6.8713   -0.6756    0.6599 H       1  UNL1        0.0633
     35 H          -5.5962   -2.7766    0.2225 H       1  UNL1        0.0830
     36 H          -2.2946   -3.5616   -0.8407 H       1  UNL1        0.0813
     37 H          -0.2606   -4.9478   -1.1996 H       1  UNL1        0.1648
     38 H           1.9079   -3.7409   -0.8783 H       1  UNL1        0.0813
     39 H           3.3486   -1.9596   -0.3619 H       1  UNL1        0.0630
     40 H           3.5867    2.0920    1.0435 H       1  UNL1        0.0624
     41 H           1.1959    2.2655    1.0220 H       1  UNL1        0.0624
     42 H          -0.0173    3.2664   -0.3652 H       1  UNL1        0.0581
     43 H           5.8494    1.9109   -0.4135 H       1  UNL1        0.0841
     44 H           8.3938   -1.1284    0.8853 H       1  UNL1        0.0907
@<TRIPOS>BOND
     1     1     2    1
     2     2     3    2
     3     3     4   ar
     4     4     5   ar
     5     5     6   ar
     6     6     7   ar
     7     7     8   ar
     8     8     9   ar
     9     9    10   ar
    10    10    11   ar
    11    11    12   ar
    12    12    13   ar
    13    13    14   ar
    14    14    15   ar
    15    15    16   ar
    16    16    17   ar
    17    17    18   ar
    18    18    19   ar
    19    19    20   ar
    20    20    21   ar
    21    21    22   ar
    22    22    23   ar
    23    23    24    2
    24    18    25    1
    25    25    26   ar
    26    26    27   ar
    27    27    28   ar
    28    28    29   ar
    29    24     1    1
    30    29    25   ar
    31    23     3   ar
    32     9     4   ar
    33    22    10   ar
    34    15    11   ar
    35    21    16   ar
    36     1    30    1
    37     1    31    1
    38     2    32    1
    39     5    33    1
    40     6    34    1
    41     7    35    1
    42    12    36    1
    43    13    37    1
    44    14    38    1
    45    17    39    1
    46    19    40    1
    47    20    41    1
    48    24    42    1
    49    26    43    1
    50    28    44    1
