@<TRIPOS>MOLECULE
*****
 46 52 0 0 0
SMALL
GASTEIGER

@<TRIPOS>ATOM
      1 C          -0.8578    3.9118    0.9889 C.3     1  UNL1       -0.0148
      2 C          -2.2549    3.4713    0.6837 C.2     1  UNL1       -0.0719
      3 C          -2.2521    2.1754    0.3269 C.ar    1  UNL1       -0.0119
      4 C          -3.3672    1.3131   -0.0571 C.ar    1  UNL1        0.0084
      5 C          -4.6885    1.7813   -0.0990 C.ar    1  UNL1       -0.0505
      6 C          -5.7147    0.9254   -0.4679 C.ar    1  UNL1       -0.0430
      7 C          -5.3809   -0.3728   -0.7825 C.ar    1  UNL1        0.0283
      8 N          -4.1179   -0.8527   -0.7516 N.ar    1  UNL1       -0.2543
      9 C          -3.0982   -0.0324   -0.3941 C.ar    1  UNL1        0.0799
     10 C          -1.6915   -0.6182   -0.3733 C.ar    1  UNL1        0.0199
     11 C          -1.3743   -1.9962   -0.7165 C.ar    1  UNL1       -0.0073
     12 C          -2.2893   -3.0097   -1.1239 C.ar    1  UNL1       -0.0534
     13 C          -1.9112   -4.3231   -1.4402 C.ar    1  UNL1       -0.0611
     14 C          -0.5841   -4.7014   -1.3667 C.ar    1  UNL1       -0.0611
     15 C           0.3621   -3.7644   -0.9774 C.ar    1  UNL1       -0.0533
     16 C          -0.0169   -2.4382   -0.6579 C.ar    1  UNL1       -0.0064
     17 C           1.0180   -1.5536   -0.2722 C.ar    1  UNL1        0.0291
     18 C           2.4351   -1.6455   -0.1076 C.ar    1  UNL1       -0.0074
     19 C           2.8826   -0.4070    0.2974 C.ar    1  UNL1        0.1377
     20 O           1.8185    0.4388    0.3898 O.2     1  UNL1       -0.4541
     21 C           0.6859   -0.2466    0.0470 C.ar    1  UNL1        0.1446
     22 C          -0.6192    0.2591    0.0128 C.ar    1  UNL1        0.0351
     23 C          -0.8932    1.6607    0.3640 C.ar    1  UNL1       -0.0098
     24 C          -0.0753    2.6581    0.7463 C.2     1  UNL1       -0.0718
     25 C           4.1875    0.1514    0.6282 C.ar    1  UNL1        0.0354
     26 C           4.3515    1.4828    1.0249 C.ar    1  UNL1       -0.0482
     27 C           5.6199    1.9747    1.3322 C.ar    1  UNL1       -0.0429
     28 C           6.6999    1.1150    1.2340 C.ar    1  UNL1        0.0276
     29 N           6.5937   -0.1754    0.8566 N.ar    1  UNL1       -0.2626
     30 C           5.3454   -0.6216    0.5647 C.ar    1  UNL1        0.0382
     31 H          -0.7644    4.2415    2.0277 H       1  UNL1        0.0350
     32 H          -0.5392    4.7133    0.3162 H       1  UNL1        0.0350
     33 H          -3.1096    4.1254    0.7514 H       1  UNL1        0.0581
     34 H          -4.9290    2.8092    0.1538 H       1  UNL1        0.0625
     35 H          -6.7436    1.2629   -0.5079 H       1  UNL1        0.0633
     36 H          -6.1400   -1.0912   -1.0786 H       1  UNL1        0.0830
     37 H          -3.3506   -2.8094   -1.2122 H       1  UNL1        0.0624
     38 H          -2.6691   -5.0411   -1.7434 H       1  UNL1        0.0618
     39 H          -0.2868   -5.7171   -1.6105 H       1  UNL1        0.0618
     40 H           1.4002   -4.0823   -0.9266 H       1  UNL1        0.0624
     41 H           3.0497   -2.5190   -0.2682 H       1  UNL1        0.0662
     42 H           0.9935    2.6095    0.8729 H       1  UNL1        0.0581
     43 H           3.4955    2.1483    1.0985 H       1  UNL1        0.0626
     44 H           5.7587    3.0048    1.6408 H       1  UNL1        0.0633
     45 H           7.7072    1.4510    1.4627 H       1  UNL1        0.0829
     46 H           5.3149   -1.6659    0.2666 H       1  UNL1        0.0837
@<TRIPOS>BOND
     1     1     2    1
     2     2     3    2
     3     3     4   ar
     4     4     5   ar
     5     5     6   ar
     6     6     7   ar
     7     7     8   ar
     8     8     9   ar
     9     9    10   ar
    10    10    11   ar
    11    11    12   ar
    12    12    13   ar
    13    13    14   ar
    14    14    15   ar
    15    15    16   ar
    16    16    17   ar
    17    17    18   ar
    18    18    19   ar
    19    19    20   ar
    20    20    21   ar
    21    21    22   ar
    22    22    23   ar
    23    23    24    2
    24    19    25    1
    25    25    26   ar
    26    26    27   ar
    27    27    28   ar
    28    28    29   ar
    29    29    30   ar
    30    24     1    1
    31    30    25   ar
    32    23     3   ar
    33     9     4   ar
    34    22    10   ar
    35    16    11   ar
    36    21    17   ar
    37     1    31    1
    38     1    32    1
    39     2    33    1
    40     5    34    1
    41     6    35    1
    42     7    36    1
    43    12    37    1
    44    13    38    1
    45    14    39    1
    46    15    40    1
    47    18    41    1
    48    24    42    1
    49    26    43    1
    50    27    44    1
    51    28    45    1
    52    30    46    1
