@<TRIPOS>MOLECULE
*****
 46 52 0 0 0
SMALL
GASTEIGER

@<TRIPOS>ATOM
      1 C          -1.6924    3.7880   -0.1131 C.3     1  UNL1       -0.0148
      2 C          -3.0396    3.1442   -0.1334 C.2     1  UNL1       -0.0719
      3 C          -2.9023    1.8074   -0.1505 C.ar    1  UNL1       -0.0120
      4 C          -3.9482    0.7853   -0.1734 C.ar    1  UNL1        0.0084
      5 C          -5.3147    1.0943   -0.1805 C.ar    1  UNL1       -0.0505
      6 C          -6.2549    0.0733   -0.2023 C.ar    1  UNL1       -0.0430
      7 C          -5.7940   -1.2259   -0.2163 C.ar    1  UNL1        0.0283
      8 N          -4.4849   -1.5577   -0.2100 N.ar    1  UNL1       -0.2543
      9 C          -3.5562   -0.5664   -0.1887 C.ar    1  UNL1        0.0798
     10 C          -2.1174   -0.9599   -0.1821 C.ar    1  UNL1        0.0172
     11 C          -1.6224   -2.3039   -0.1966 C.ar    1  UNL1       -0.0005
     12 C          -2.3718   -3.4603   -0.2194 C.ar    1  UNL1       -0.0159
     13 S          -1.4126   -4.8876   -0.2311 S.2     1  UNL1       -0.1038
     14 C           0.0432   -3.9888   -0.2059 C.ar    1  UNL1       -0.0160
     15 C          -0.2080   -2.6389   -0.1892 C.ar    1  UNL1       -0.0028
     16 C           0.7854   -1.6767   -0.1671 C.ar    1  UNL1       -0.0124
     17 C           2.2242   -1.7812   -0.1563 C.2     1  UNL1       -0.0497
     18 C           2.7088   -0.5248   -0.1348 C.2     1  UNL1       -0.0353
     19 C           1.5841    0.5063   -0.1298 C.3     1  UNL1       -0.0007
     20 C           0.3371   -0.3439   -0.1525 C.ar    1  UNL1       -0.0269
     21 C          -1.0426    0.0346   -0.1591 C.ar    1  UNL1       -0.0037
     22 C          -1.4830    1.4547   -0.1432 C.ar    1  UNL1       -0.0131
     23 C          -0.7774    2.6009   -0.1215 C.2     1  UNL1       -0.0719
     24 C           4.1311   -0.1268   -0.1172 C.ar    1  UNL1       -0.0215
     25 C           5.1629   -1.0798   -0.1266 C.ar    1  UNL1       -0.0543
     26 C           6.5085   -0.6959   -0.1100 C.ar    1  UNL1       -0.0612
     27 C           6.8503    0.6517   -0.0838 C.ar    1  UNL1       -0.0617
     28 C           5.8467    1.6143   -0.0741 C.ar    1  UNL1       -0.0612
     29 C           4.5018    1.2278   -0.0907 C.ar    1  UNL1       -0.0543
     30 H          -1.5529    4.3876    0.7911 H       1  UNL1        0.0350
     31 H          -1.5376    4.4121   -0.9980 H       1  UNL1        0.0350
     32 H          -3.9619    3.7032   -0.1336 H       1  UNL1        0.0581
     33 H          -5.6589    2.1236   -0.1692 H       1  UNL1        0.0625
     34 H          -7.3174    0.2872   -0.2082 H       1  UNL1        0.0633
     35 H          -6.4832   -2.0655   -0.2335 H       1  UNL1        0.0830
     36 H          -3.4426   -3.5906   -0.2305 H       1  UNL1        0.0700
     37 H           0.9921   -4.5061   -0.2050 H       1  UNL1        0.0700
     38 H           2.7642   -2.7120   -0.1644 H       1  UNL1        0.0627
     39 H           1.6385    1.1293   -1.0283 H       1  UNL1        0.0362
     40 H           1.6227    1.1037    0.7867 H       1  UNL1        0.0362
     41 H           0.2903    2.7259   -0.1107 H       1  UNL1        0.0581
     42 H           4.9431   -2.1434   -0.1472 H       1  UNL1        0.0624
     43 H           7.2872   -1.4543   -0.1178 H       1  UNL1        0.0618
     44 H           7.8949    0.9504   -0.0709 H       1  UNL1        0.0618
     45 H           6.1069    2.6695   -0.0536 H       1  UNL1        0.0618
     46 H           3.7531    2.0152   -0.0822 H       1  UNL1        0.0624
@<TRIPOS>BOND
     1     1     2    1
     2     2     3    2
     3     3     4   ar
     4     4     5   ar
     5     5     6   ar
     6     6     7   ar
     7     7     8   ar
     8     8     9   ar
     9     9    10   ar
    10    10    11   ar
    11    11    12   ar
    12    12    13   ar
    13    13    14   ar
    14    14    15   ar
    15    15    16   ar
    16    16    17    1
    17    17    18    2
    18    18    19    1
    19    19    20    1
    20    20    21   ar
    21    21    22   ar
    22    22    23    2
    23    18    24    1
    24    24    25   ar
    25    25    26   ar
    26    26    27   ar
    27    27    28   ar
    28    28    29   ar
    29    23     1    1
    30    29    24   ar
    31    22     3   ar
    32     9     4   ar
    33    21    10   ar
    34    15    11   ar
    35    20    16   ar
    36     1    30    1
    37     1    31    1
    38     2    32    1
    39     5    33    1
    40     6    34    1
    41     7    35    1
    42    12    36    1
    43    14    37    1
    44    17    38    1
    45    19    39    1
    46    19    40    1
    47    23    41    1
    48    25    42    1
    49    26    43    1
    50    27    44    1
    51    28    45    1
    52    29    46    1
