@<TRIPOS>MOLECULE
*****
 44 50 0 0 0
SMALL
GASTEIGER

@<TRIPOS>ATOM
      1 C          -4.7105   -2.7271    1.8288 C.3     1  UNL1       -0.0148
      2 C          -5.3739   -1.6566    1.0139 C.2     1  UNL1       -0.0719
      3 C          -4.4404   -0.8493    0.4829 C.ar    1  UNL1       -0.0120
      4 C          -4.5933    0.3261   -0.3783 C.ar    1  UNL1        0.0084
      5 C          -5.8284    0.8184   -0.8073 C.ar    1  UNL1       -0.0505
      6 C          -5.8734    1.9426   -1.6251 C.ar    1  UNL1       -0.0430
      7 C          -4.6790    2.5389   -1.9877 C.ar    1  UNL1        0.0283
      8 N          -3.4657    2.0951   -1.5951 N.ar    1  UNL1       -0.2543
      9 C          -3.4231    0.9940   -0.7942 C.ar    1  UNL1        0.0792
     10 C          -2.0646    0.5319   -0.3799 C.ar    1  UNL1        0.0093
     11 C          -0.9046    1.2090   -0.8032 C.ar    1  UNL1       -0.0428
     12 C           0.3806    0.7841   -0.4201 C.ar    1  UNL1        0.0009
     13 C           1.5438    1.4337   -0.8233 C.ar    1  UNL1        0.0360
     14 N           2.7938    1.0524   -0.4739 N.ar    1  UNL1       -0.2538
     15 C           2.9390   -0.0307    0.3199 C.ar    1  UNL1        0.0802
     16 C           1.8265   -0.7437    0.7719 C.ar    1  UNL1       -0.0274
     17 C           0.5319   -0.3394    0.4033 C.ar    1  UNL1       -0.0138
     18 C          -0.6153   -1.0264    0.8345 C.ar    1  UNL1       -0.0456
     19 C          -1.9005   -0.6054    0.4543 C.ar    1  UNL1       -0.0078
     20 C          -3.1179   -1.3081    0.8928 C.ar    1  UNL1       -0.0134
     21 C          -3.2557   -2.3942    1.6723 C.2     1  UNL1       -0.0719
     22 C           4.3395   -0.3793    0.6542 C.ar    1  UNL1        0.0650
     23 S           4.6795   -1.7520    1.6692 S.2     1  UNL1       -0.0908
     24 C           6.3694   -1.5288    1.6059 C.ar    1  UNL1        0.0038
     25 C           6.6958   -0.4450    0.8391 C.ar    1  UNL1        0.0968
     26 N           7.9876   -0.0621    0.6367 N.ar    1  UNL1       -0.2514
     27 C           8.0434    1.0392   -0.1586 C.ar    1  UNL1        0.0464
     28 C           6.9349    1.6958   -0.6992 C.ar    1  UNL1        0.0464
     29 N           5.6421    1.3297   -0.5090 N.ar    1  UNL1       -0.2507
     30 C           5.5358    0.2236    0.2867 C.ar    1  UNL1        0.1054
     31 H          -4.9327   -3.7212    1.4302 H       1  UNL1        0.0350
     32 H          -5.0172   -2.6719    2.8774 H       1  UNL1        0.0350
     33 H          -6.4428   -1.5761    0.8931 H       1  UNL1        0.0581
     34 H          -6.7566    0.3385   -0.5135 H       1  UNL1        0.0625
     35 H          -6.8192    2.3442   -1.9715 H       1  UNL1        0.0633
     36 H          -4.6647    3.4188   -2.6249 H       1  UNL1        0.0830
     37 H          -1.0047    2.0848   -1.4440 H       1  UNL1        0.0631
     38 H           1.5074    2.3123   -1.4624 H       1  UNL1        0.0836
     39 H           1.9399   -1.6137    1.4094 H       1  UNL1        0.0645
     40 H          -0.4992   -1.8982    1.4734 H       1  UNL1        0.0630
     41 H          -2.4653   -2.9656    2.1328 H       1  UNL1        0.0581
     42 H           7.0418   -2.1942    2.1275 H       1  UNL1        0.0715
     43 H           9.0458    1.4036   -0.3644 H       1  UNL1        0.0845
     44 H           7.0704    2.5721   -1.3266 H       1  UNL1        0.0845
@<TRIPOS>BOND
     1     1     2    1
     2     2     3    2
     3     3     4   ar
     4     4     5   ar
     5     5     6   ar
     6     6     7   ar
     7     7     8   ar
     8     8     9   ar
     9     9    10   ar
    10    10    11   ar
    11    11    12   ar
    12    12    13   ar
    13    13    14   ar
    14    14    15   ar
    15    15    16   ar
    16    16    17   ar
    17    17    18   ar
    18    18    19   ar
    19    19    20   ar
    20    20    21    2
    21    15    22    1
    22    22    23   ar
    23    23    24   ar
    24    24    25   ar
    25    25    26   ar
    26    26    27   ar
    27    27    28   ar
    28    28    29   ar
    29    29    30   ar
    30    21     1    1
    31    30    22   ar
    32    20     3   ar
    33    30    25   ar
    34     9     4   ar
    35    19    10   ar
    36    17    12   ar
    37     1    31    1
    38     1    32    1
    39     2    33    1
    40     5    34    1
    41     6    35    1
    42     7    36    1
    43    11    37    1
    44    13    38    1
    45    16    39    1
    46    18    40    1
    47    21    41    1
    48    24    42    1
    49    27    43    1
    50    28    44    1
