@<TRIPOS>MOLECULE
*****
 47 53 0 0 0
SMALL
GASTEIGER

@<TRIPOS>ATOM
      1 C          -1.8557    0.2153   -3.3754 C.3     1  UNL1        0.0000
      2 C          -3.2087    0.5946   -2.8657 C.2     1  UNL1        0.0000
      3 C          -3.1811    0.6686   -1.5254 C.ar    1  UNL1        0.0000
      4 C          -4.2522    1.0601   -0.6053 C.ar    1  UNL1        0.0000
      5 C          -5.5531    1.3677   -1.0158 C.ar    1  UNL1        0.0000
      6 C          -6.5035    1.7441   -0.0726 C.ar    1  UNL1        0.0000
      7 C          -6.1215    1.8010    1.2543 C.ar    1  UNL1        0.0000
      8 N          -4.8781    1.5106    1.6915 N.ar    1  UNL1        0.0000
      9 C          -3.9468    1.1410    0.7663 C.ar    1  UNL1        0.0000
     10 C          -2.5883    0.8073    1.2915 C.ar    1  UNL1        0.0000
     11 C          -2.3134    0.9034    2.6663 C.ar    1  UNL1        0.0000
     12 C          -1.0646    0.5687    3.1974 C.ar    1  UNL1        0.0000
     13 C          -0.0553    0.0978    2.3434 C.ar    1  UNL1        0.0000
     14 C           1.2795   -0.3378    2.5733 C.ar    1  UNL1        0.0000
     15 C           1.8172   -0.7108    1.3622 C.ar    1  UNL1        0.0000
     16 N           0.8358   -0.5326    0.4188 N.ar    1  UNL1        0.0000
     17 C          -0.3112   -0.0032    0.9707 C.ar    1  UNL1        0.0000
     18 C          -1.5524    0.3724    0.4098 C.ar    1  UNL1        0.0000
     19 C          -1.8385    0.3383   -1.0386 C.ar    1  UNL1        0.0000
     20 C          -1.0600    0.0947   -2.1094 C.2     1  UNL1        0.0000
     21 C           3.0711   -1.2417    0.9460 C.ar    1  UNL1        0.0000
     22 C           3.5174   -2.3449    1.5957 C.ar    1  UNL1        0.0000
     23 C           4.7607   -3.0316    1.2503 C.ar    1  UNL1        0.0000
     24 C           5.5588   -2.6081    0.2541 C.ar    1  UNL1        0.0000
     25 C           5.1767   -1.4241   -0.4860 C.ar    1  UNL1        0.0000
     26 C           5.8945   -0.8716   -1.4819 C.2     1  UNL1        0.0000
     27 SI          5.0511    0.6650   -2.1298 Si      1  UNL1        0.0000
     28 C           3.6884    0.3900   -0.8771 C.2     1  UNL1        0.0000
     29 C           3.9162   -0.7189   -0.1413 C.ar    1  UNL1        0.0000
     30 H          -1.4456    0.9959   -4.0224 H       1  UNL1        0.0000
     31 H          -1.8855   -0.7347   -3.9157 H       1  UNL1        0.0000
     32 H          -4.0503    0.7983   -3.5086 H       1  UNL1        0.0000
     33 H          -5.8380    1.3196   -2.0620 H       1  UNL1        0.0000
     34 H          -7.5179    1.9880   -0.3674 H       1  UNL1        0.0000
     35 H          -6.8272    2.0900    2.0285 H       1  UNL1        0.0000
     36 H          -3.0875    1.2447    3.3520 H       1  UNL1        0.0000
     37 H          -0.8878    0.6577    4.2649 H       1  UNL1        0.0000
     38 H           1.7881   -0.3743    3.5276 H       1  UNL1        0.0000
     39 H           0.9444   -0.7980   -0.5464 H       1  UNL1        0.0000
     40 H          -0.0102   -0.1319   -2.1349 H       1  UNL1        0.0000
     41 H           2.9409   -2.7941    2.4021 H       1  UNL1        0.0000
     42 H           5.0186   -3.9150    1.8262 H       1  UNL1        0.0000
     43 H           6.4770   -3.1269    0.0043 H       1  UNL1        0.0000
     44 H           6.8361   -1.2137   -1.8807 H       1  UNL1        0.0000
     45 H           4.5649    0.4952   -3.5198 H       1  UNL1        0.0000
     46 H           5.8288    1.8996   -1.8730 H       1  UNL1        0.0000
     47 H           2.8680    1.0840   -0.7892 H       1  UNL1        0.0000
@<TRIPOS>BOND
     1     1     2    1
     2     2     3    2
     3     3     4   ar
     4     4     5   ar
     5     5     6   ar
     6     6     7   ar
     7     7     8   ar
     8     8     9   ar
     9     9    10   ar
    10    10    11   ar
    11    11    12   ar
    12    12    13   ar
    13    13    14   ar
    14    14    15   ar
    15    15    16   ar
    16    16    17   ar
    17    17    18   ar
    18    18    19   ar
    19    19    20    2
    20    15    21    1
    21    21    22   ar
    22    22    23   ar
    23    23    24   ar
    24    24    25   ar
    25    25    26    2
    26    26    27    1
    27    27    28    1
    28    28    29    2
    29    20     1    1
    30    29    21   ar
    31    19     3   ar
    32    29    25   ar
    33     9     4   ar
    34    18    10   ar
    35    17    13   ar
    36     1    30    1
    37     1    31    1
    38     2    32    1
    39     5    33    1
    40     6    34    1
    41     7    35    1
    42    11    36    1
    43    12    37    1
    44    14    38    1
    45    16    39    1
    46    20    40    1
    47    22    41    1
    48    23    42    1
    49    24    43    1
    50    26    44    1
    51    27    45    1
    52    27    46    1
    53    28    47    1
