@<TRIPOS>MOLECULE
*****
 43 49 0 0 0
SMALL
GASTEIGER

@<TRIPOS>ATOM
      1 C          -2.9728   -3.0486   -1.5507 C.3     1  UNL1       -0.0148
      2 C          -4.1170   -2.1414   -1.2228 C.2     1  UNL1       -0.0719
      3 C          -3.6529   -1.0237   -0.6391 C.ar    1  UNL1       -0.0120
      4 C          -4.3960    0.1360   -0.1518 C.ar    1  UNL1        0.0084
      5 C          -5.7868    0.2578   -0.2265 C.ar    1  UNL1       -0.0505
      6 C          -6.4058    1.4017    0.2649 C.ar    1  UNL1       -0.0430
      7 C          -5.6108    2.3887    0.8162 C.ar    1  UNL1        0.0283
      8 N          -4.2661    2.3078    0.9061 N.ar    1  UNL1       -0.2543
      9 C          -3.6601    1.1854    0.4238 C.ar    1  UNL1        0.0793
     10 C          -2.1710    1.1373    0.5435 C.ar    1  UNL1        0.0107
     11 C          -1.4819    2.2123    1.1267 C.ar    1  UNL1       -0.0513
     12 C          -0.0986    2.1979    1.2528 C.ar    1  UNL1       -0.0519
     13 C           0.6409    1.1039    0.7986 C.ar    1  UNL1        0.0016
     14 C           2.0389    1.1118    0.9366 C.ar    1  UNL1       -0.0428
     15 C           2.8050    0.0382    0.4919 C.ar    1  UNL1        0.0085
     16 C           2.1089   -1.0122   -0.0777 C.ar    1  UNL1        0.0365
     17 N           0.7615   -1.0495   -0.2237 N.ar    1  UNL1       -0.2537
     18 C           0.0037   -0.0093    0.2021 C.ar    1  UNL1        0.0793
     19 C          -1.4097    0.0178    0.0784 C.ar    1  UNL1        0.0175
     20 C          -2.1961   -1.0905   -0.5313 C.ar    1  UNL1       -0.0113
     21 C          -1.7977   -2.2626   -1.0588 C.2     1  UNL1       -0.0719
     22 C           4.2527    0.0191    0.6254 C.ar    1  UNL1        0.0351
     23 S           5.0409    0.2285    2.1464 S.2     1  UNL1       -0.0949
     24 C           6.6144    0.0597    1.4661 C.ar    1  UNL1       -0.0155
     25 C           6.4732   -0.1385    0.1368 C.ar    1  UNL1       -0.0032
     26 C           7.3988   -0.3311   -0.9162 C.ar    1  UNL1       -0.0465
     27 C           6.7696   -0.4897   -2.1562 C.ar    1  UNL1       -0.0231
     28 S           5.0123   -0.4177   -2.1549 S.2     1  UNL1       -0.0955
     29 C           5.1739   -0.1665   -0.3717 C.ar    1  UNL1        0.0341
     30 H          -3.0600   -4.0023   -1.0221 H       1  UNL1        0.0350
     31 H          -2.9059   -3.2276   -2.6277 H       1  UNL1        0.0350
     32 H          -5.1460   -2.3820   -1.4381 H       1  UNL1        0.0581
     33 H          -6.3960   -0.5275   -0.6629 H       1  UNL1        0.0625
     34 H          -7.4825    1.5191    0.2183 H       1  UNL1        0.0633
     35 H          -6.0464    3.3010    1.2137 H       1  UNL1        0.0830
     36 H          -2.0287    3.0809    1.4916 H       1  UNL1        0.0624
     37 H           0.3923    3.0537    1.7115 H       1  UNL1        0.0624
     38 H           2.5320    1.9701    1.3893 H       1  UNL1        0.0631
     39 H           2.6200   -1.8993   -0.4434 H       1  UNL1        0.0836
     40 H          -0.7845   -2.6245   -1.1368 H       1  UNL1        0.0581
     41 H           7.5055    0.1196    2.0748 H       1  UNL1        0.0700
     42 H           8.4759   -0.3549   -0.8042 H       1  UNL1        0.0629
     43 H           7.2526   -0.6488   -3.1109 H       1  UNL1        0.0694
@<TRIPOS>BOND
     1     1     2    1
     2     2     3    2
     3     3     4   ar
     4     4     5   ar
     5     5     6   ar
     6     6     7   ar
     7     7     8   ar
     8     8     9   ar
     9     9    10   ar
    10    10    11   ar
    11    11    12   ar
    12    12    13   ar
    13    13    14   ar
    14    14    15   ar
    15    15    16   ar
    16    16    17   ar
    17    17    18   ar
    18    18    19   ar
    19    19    20   ar
    20    20    21    2
    21    15    22    1
    22    22    23   ar
    23    23    24   ar
    24    24    25   ar
    25    25    26   ar
    26    26    27   ar
    27    27    28   ar
    28    28    29   ar
    29    21     1    1
    30    29    22   ar
    31    20     3   ar
    32    29    25   ar
    33     9     4   ar
    34    19    10   ar
    35    18    13   ar
    36     1    30    1
    37     1    31    1
    38     2    32    1
    39     5    33    1
    40     6    34    1
    41     7    35    1
    42    11    36    1
    43    12    37    1
    44    14    38    1
    45    16    39    1
    46    21    40    1
    47    24    41    1
    48    26    42    1
    49    27    43    1
