@<TRIPOS>MOLECULE
*****
 48 55 0 0 0
SMALL
GASTEIGER

@<TRIPOS>ATOM
      1 C          -3.9280   -3.0220   -0.1679 C.3     1  UNL1       -0.0148
      2 C          -4.8292   -1.8482   -0.3952 C.2     1  UNL1       -0.0719
      3 C          -4.1150   -0.7138   -0.3081 C.ar    1  UNL1       -0.0120
      4 C          -4.5926    0.6675   -0.2559 C.ar    1  UNL1        0.0084
      5 C          -5.9058    1.0566   -0.5287 C.ar    1  UNL1       -0.0505
      6 C          -6.2645    2.3943   -0.4003 C.ar    1  UNL1       -0.0430
      7 C          -5.2964    3.2977    0.0006 C.ar    1  UNL1        0.0283
      8 N          -4.0161    2.9602    0.2685 N.ar    1  UNL1       -0.2543
      9 C          -3.6668    1.6510    0.1376 C.ar    1  UNL1        0.0807
     10 C          -2.2374    1.3227    0.3782 C.ar    1  UNL1        0.0273
     11 C          -1.3458    2.2825    0.8410 C.ar    1  UNL1        0.0380
     12 N          -0.0183    2.0929    1.0393 N.ar    1  UNL1       -0.2542
     13 C           0.5268    0.9315    0.6765 C.ar    1  UNL1        0.0728
     14 C           1.9334    0.8527    0.8522 C.ar    1  UNL1       -0.0268
     15 C           2.7581   -0.2243    0.4616 C.ar    1  UNL1        0.0019
     16 C           4.1892   -0.2543    0.6154 C.ar    1  UNL1        0.0439
     17 S           5.0091   -1.3606    1.6655 S.2     1  UNL1       -0.0939
     18 C           6.5834   -0.7192    1.2873 C.ar    1  UNL1       -0.0145
     19 C           6.4117    0.2867    0.4055 C.ar    1  UNL1        0.0073
     20 C           7.1436    1.2466   -0.3354 C.ar    1  UNL1       -0.0361
     21 C           6.2070    1.9943   -1.0823 C.ar    1  UNL1        0.0028
     22 N           4.9022    1.5587   -0.8558 N.ar    1  UNL1       -0.3598
     23 C           5.1104    0.5469    0.0380 C.ar    1  UNL1        0.0614
     24 C           2.0124   -1.2024   -0.1880 C.ar    1  UNL1        0.0084
     25 C           2.4959   -2.3144   -0.8341 C.ar    1  UNL1        0.0100
     26 N           1.4255   -2.9298   -1.4360 N.ar    1  UNL1       -0.3659
     27 C           0.2756   -2.2079   -1.2005 C.ar    1  UNL1        0.0101
     28 C           0.5888   -1.1672   -0.3566 C.ar    1  UNL1        0.0098
     29 C          -0.2737   -0.1288    0.1284 C.ar    1  UNL1        0.0179
     30 C          -1.6988    0.0387    0.1175 C.ar    1  UNL1        0.0028
     31 C          -2.7045   -1.0304   -0.0848 C.ar    1  UNL1       -0.0127
     32 C          -2.6057   -2.3610    0.0810 C.2     1  UNL1       -0.0719
     33 H          -3.8893   -3.6741   -1.0450 H       1  UNL1        0.0350
     34 H          -4.2483   -3.5963    0.7064 H       1  UNL1        0.0350
     35 H          -5.8988   -1.9324   -0.5077 H       1  UNL1        0.0581
     36 H          -6.6534    0.3322   -0.8365 H       1  UNL1        0.0625
     37 H          -7.2774    2.7235   -0.6041 H       1  UNL1        0.0633
     38 H          -5.5305    4.3523    0.1184 H       1  UNL1        0.0830
     39 H          -1.6863    3.2865    1.0887 H       1  UNL1        0.0836
     40 H           2.4143    1.7135    1.3226 H       1  UNL1        0.0645
     41 H           7.4806   -1.1211    1.7344 H       1  UNL1        0.0700
     42 H           8.2146    1.3990   -0.3447 H       1  UNL1        0.0639
     43 H           6.3712    2.8157   -1.7679 H       1  UNL1        0.0807
     44 H           4.0186    1.8800   -1.2342 H       1  UNL1        0.1654
     45 H           3.4968   -2.7071   -0.9570 H       1  UNL1        0.0813
     46 H           1.4838   -3.7554   -2.0186 H       1  UNL1        0.1648
     47 H          -0.6419   -2.5049   -1.6873 H       1  UNL1        0.0813
     48 H          -1.7285   -2.9085    0.3883 H       1  UNL1        0.0581
@<TRIPOS>BOND
     1     1     2    1
     2     2     3    2
     3     3     4   ar
     4     4     5   ar
     5     5     6   ar
     6     6     7   ar
     7     7     8   ar
     8     8     9   ar
     9     9    10   ar
    10    10    11   ar
    11    11    12   ar
    12    12    13   ar
    13    13    14   ar
    14    14    15   ar
    15    15    16    1
    16    16    17   ar
    17    17    18   ar
    18    18    19   ar
    19    19    20   ar
    20    20    21   ar
    21    21    22   ar
    22    22    23   ar
    23    15    24   ar
    24    24    25   ar
    25    25    26   ar
    26    26    27   ar
    27    27    28   ar
    28    28    29   ar
    29    29    30   ar
    30    30    31   ar
    31    31    32    2
    32    32     1    1
    33    31     3   ar
    34     9     4   ar
    35    30    10   ar
    36    29    13   ar
    37    23    16   ar
    38    28    24   ar
    39    23    19   ar
    40     1    33    1
    41     1    34    1
    42     2    35    1
    43     5    36    1
    44     6    37    1
    45     7    38    1
    46    11    39    1
    47    14    40    1
    48    18    41    1
    49    20    42    1
    50    21    43    1
    51    22    44    1
    52    25    45    1
    53    26    46    1
    54    27    47    1
    55    32    48    1
