@<TRIPOS>MOLECULE
*****
 43 49 0 0 0
SMALL
GASTEIGER

@<TRIPOS>ATOM
      1 C          -3.2769   -2.9619    0.0951 C.3     1  UNL1       -0.0148
      2 C          -4.2287   -1.8210   -0.0904 C.2     1  UNL1       -0.0719
      3 C          -3.5440   -0.6657   -0.1149 C.ar    1  UNL1       -0.0119
      4 C          -4.0549    0.7044   -0.0770 C.ar    1  UNL1        0.0099
      5 C          -5.3999    1.0404   -0.2547 C.ar    1  UNL1       -0.0505
      6 C          -5.7941    2.3703   -0.1537 C.ar    1  UNL1       -0.0430
      7 C          -4.8289    3.3205    0.1248 C.ar    1  UNL1        0.0284
      8 N          -3.5220    3.0346    0.2968 N.ar    1  UNL1       -0.2528
      9 C          -3.1308    1.7313    0.1952 C.ar    1  UNL1        0.0974
     10 C          -1.6653    1.4435    0.3291 C.ar    1  UNL1        0.0980
     11 N          -0.8798    2.4923    0.6891 N.ar    1  UNL1       -0.2522
     12 C           0.4525    2.2971    0.7585 C.ar    1  UNL1        0.0361
     13 C           1.1148    1.1325    0.3926 C.ar    1  UNL1        0.0021
     14 C           2.5494    1.0939    0.4794 C.ar    1  UNL1       -0.0412
     15 C           3.3852    0.0180    0.0760 C.ar    1  UNL1        0.0280
     16 C           4.8408    0.0410    0.2248 C.ar    1  UNL1        0.1636
     17 N           5.4298    1.2427    0.2219 N.ar    1  UNL1       -0.2160
     18 C           6.7491    1.2189    0.3951 C.ar    1  UNL1        0.1200
     19 N           7.4948    0.1338    0.5786 N.ar    1  UNL1       -0.2241
     20 C           6.8005   -0.9998    0.5792 C.ar    1  UNL1        0.1200
     21 N           5.4852   -1.1142    0.4104 N.ar    1  UNL1       -0.2160
     22 C           2.6105   -0.9902   -0.5247 C.ar    1  UNL1        0.0004
     23 C           3.1452   -2.0897   -1.1613 C.ar    1  UNL1       -0.0159
     24 S           1.9493   -3.0433   -1.9290 S.2     1  UNL1       -0.1038
     25 C           0.7030   -1.9772   -1.4389 C.ar    1  UNL1       -0.0160
     26 C           1.1530   -0.9749   -0.6078 C.ar    1  UNL1       -0.0018
     27 C           0.3007    0.0499   -0.0633 C.ar    1  UNL1        0.0016
     28 C          -1.1271    0.1654    0.0500 C.ar    1  UNL1        0.0182
     29 C          -2.1117   -0.9367   -0.0131 C.ar    1  UNL1       -0.0113
     30 C          -1.9567   -2.2570    0.1923 C.2     1  UNL1       -0.0719
     31 H          -3.4968   -3.5082    1.0171 H       1  UNL1        0.0350
     32 H          -3.3012   -3.6476   -0.7565 H       1  UNL1        0.0350
     33 H          -5.3013   -1.9380   -0.1001 H       1  UNL1        0.0581
     34 H          -6.1455    0.2809   -0.4680 H       1  UNL1        0.0625
     35 H          -6.8310    2.6586   -0.2851 H       1  UNL1        0.0633
     36 H          -5.0857    4.3720    0.2174 H       1  UNL1        0.0830
     37 H           0.9990    3.1725    1.1044 H       1  UNL1        0.0836
     38 H           3.0506    1.9747    0.8934 H       1  UNL1        0.0631
     39 H           7.2633    2.1741    0.3882 H       1  UNL1        0.1048
     40 H           7.3579   -1.9179    0.7316 H       1  UNL1        0.1048
     41 H           4.1787   -2.3876   -1.2661 H       1  UNL1        0.0700
     42 H          -0.2920   -2.1595   -1.8155 H       1  UNL1        0.0700
     43 H          -1.0391   -2.7729    0.4302 H       1  UNL1        0.0581
@<TRIPOS>BOND
     1     1     2    1
     2     2     3    2
     3     3     4   ar
     4     4     5   ar
     5     5     6   ar
     6     6     7   ar
     7     7     8   ar
     8     8     9   ar
     9     9    10   ar
    10    10    11   ar
    11    11    12   ar
    12    12    13   ar
    13    13    14   ar
    14    14    15   ar
    15    15    16    1
    16    16    17   ar
    17    17    18   ar
    18    18    19   ar
    19    19    20   ar
    20    20    21   ar
    21    15    22   ar
    22    22    23   ar
    23    23    24   ar
    24    24    25   ar
    25    25    26   ar
    26    26    27   ar
    27    27    28   ar
    28    28    29   ar
    29    29    30    2
    30    30     1    1
    31    29     3   ar
    32     9     4   ar
    33    28    10   ar
    34    27    13   ar
    35    21    16   ar
    36    26    22   ar
    37     1    31    1
    38     1    32    1
    39     2    33    1
    40     5    34    1
    41     6    35    1
    42     7    36    1
    43    12    37    1
    44    14    38    1
    45    18    39    1
    46    20    40    1
    47    23    41    1
    48    25    42    1
    49    30    43    1
