@<TRIPOS>MOLECULE
*****
 49 56 0 0 0
SMALL
GASTEIGER

@<TRIPOS>ATOM
      1 C          -2.2490    4.0893    0.0309 C.3     1  UNL1       -0.0148
      2 C          -3.5060    3.3777    0.4187 C.2     1  UNL1       -0.0719
      3 C          -3.2734    2.0562    0.4653 C.ar    1  UNL1       -0.0134
      4 C          -4.1889    0.9530    0.7396 C.ar    1  UNL1       -0.0070
      5 C          -5.4833    1.1525    1.2296 C.ar    1  UNL1       -0.0353
      6 C          -6.2357    0.0436    1.5649 C.ar    1  UNL1        0.0282
      7 N          -5.7787   -1.2181    1.4722 N.ar    1  UNL1       -0.2626
      8 C          -4.5181   -1.3773    0.9925 C.ar    1  UNL1        0.0359
      9 C          -3.6840   -0.3503    0.5513 C.ar    1  UNL1        0.0091
     10 C          -2.2859   -0.6077    0.0292 C.ar    1  UNL1       -0.0001
     11 C          -1.3561    0.4072    0.0565 C.ar    1  UNL1       -0.0001
     12 C           0.1137    0.0721   -0.0790 C.ar    1  UNL1        0.0091
     13 C           1.1174    0.9121    0.3930 C.ar    1  UNL1        0.0366
     14 N           2.4525    0.6749    0.3060 N.ar    1  UNL1       -0.2537
     15 C           2.8510   -0.4952   -0.2509 C.ar    1  UNL1        0.0801
     16 C           1.9322   -1.4413   -0.6844 C.ar    1  UNL1       -0.0268
     17 C           0.5626   -1.1646   -0.5778 C.ar    1  UNL1       -0.0064
     18 C          -0.4650   -2.1495   -0.9041 C.ar    1  UNL1       -0.0134
     19 C          -0.3554   -3.3393   -1.5164 C.2     1  UNL1       -0.0719
     20 C          -1.7144   -3.9445   -1.6722 C.3     1  UNL1       -0.0148
     21 C          -2.5974   -2.8980   -1.0593 C.2     1  UNL1       -0.0719
     22 C          -1.8610   -1.8780   -0.5805 C.ar    1  UNL1       -0.0128
     23 C           4.3027   -0.6846   -0.3260 C.ar    1  UNL1        0.0614
     24 S           5.0838   -2.0523   -1.0700 S.2     1  UNL1       -0.0924
     25 C           6.6883   -1.4828   -0.7229 C.ar    1  UNL1       -0.0145
     26 C           6.5683   -0.3072   -0.0762 C.ar    1  UNL1        0.0073
     27 C           7.3513    0.7201    0.5058 C.ar    1  UNL1       -0.0361
     28 C           6.4550    1.6830    1.0191 C.ar    1  UNL1        0.0028
     29 N           5.1309    1.3199    0.7928 N.ar    1  UNL1       -0.3597
     30 C           5.2810    0.1293    0.1397 C.ar    1  UNL1        0.0629
     31 C          -1.8760    1.7806    0.1525 C.ar    1  UNL1       -0.0128
     32 C          -1.2835    2.9535   -0.1400 C.2     1  UNL1       -0.0719
     33 H          -2.3807    4.6371   -0.9067 H       1  UNL1        0.0350
     34 H          -1.9193    4.7748    0.8168 H       1  UNL1        0.0350
     35 H          -4.4462    3.8771    0.5923 H       1  UNL1        0.0581
     36 H          -5.8968    2.1433    1.3738 H       1  UNL1        0.0639
     37 H          -7.2460    0.1459    1.9501 H       1  UNL1        0.0830
     38 H          -4.1887   -2.4112    1.0143 H       1  UNL1        0.0836
     39 H           0.8871    1.8362    0.9141 H       1  UNL1        0.0836
     40 H           2.2645   -2.3942   -1.0784 H       1  UNL1        0.0645
     41 H           0.5482   -3.8012   -1.8823 H       1  UNL1        0.0581
     42 H          -1.9587   -4.0955   -2.7277 H       1  UNL1        0.0350
     43 H          -1.7928   -4.8939   -1.1347 H       1  UNL1        0.0350
     44 H          -3.6730   -2.9782   -1.0767 H       1  UNL1        0.0581
     45 H           7.5660   -2.0408   -1.0144 H       1  UNL1        0.0700
     46 H           8.4300    0.7801    0.5598 H       1  UNL1        0.0639
     47 H           6.6615    2.6118    1.5350 H       1  UNL1        0.0807
     48 H           4.2461    1.7665    1.0188 H       1  UNL1        0.1654
     49 H          -0.2804    3.1082   -0.5048 H       1  UNL1        0.0581
@<TRIPOS>BOND
     1     1     2    1
     2     2     3    2
     3     3     4   ar
     4     4     5   ar
     5     5     6   ar
     6     6     7   ar
     7     7     8   ar
     8     8     9   ar
     9     9    10   ar
    10    10    11   ar
    11    11    12   ar
    12    12    13   ar
    13    13    14   ar
    14    14    15   ar
    15    15    16   ar
    16    16    17   ar
    17    17    18   ar
    18    18    19    2
    19    19    20    1
    20    20    21    1
    21    21    22    2
    22    15    23    1
    23    23    24   ar
    24    24    25   ar
    25    25    26   ar
    26    26    27   ar
    27    27    28   ar
    28    28    29   ar
    29    29    30   ar
    30    11    31   ar
    31    31    32    2
    32    32     1    1
    33    31     3   ar
    34     9     4   ar
    35    22    10   ar
    36    30    23   ar
    37    17    12   ar
    38    22    18   ar
    39    30    26   ar
    40     1    33    1
    41     1    34    1
    42     2    35    1
    43     5    36    1
    44     6    37    1
    45     8    38    1
    46    13    39    1
    47    16    40    1
    48    19    41    1
    49    20    42    1
    50    20    43    1
    51    21    44    1
    52    25    45    1
    53    27    46    1
    54    28    47    1
    55    29    48    1
    56    32    49    1
