@<TRIPOS>MOLECULE
*****
 42 48 0 0 0
SMALL
GASTEIGER

@<TRIPOS>ATOM
      1 SI          0.9638    1.6299    3.3659 Si      1  UNL1        0.0000
      2 C           1.9883    0.6308    2.1937 C.2     1  UNL1        0.0000
      3 C           1.2541    0.1353    1.1741 C.ar    1  UNL1        0.0000
      4 C           1.8078   -0.6935    0.1022 C.ar    1  UNL1        0.0000
      5 C           0.9666   -1.1402   -0.8528 C.ar    1  UNL1        0.0000
      6 C          -0.4830   -0.8412   -0.8644 C.ar    1  UNL1        0.0000
      7 C          -1.2336   -1.3770   -1.9083 C.ar    1  UNL1        0.0000
      8 C          -2.6000   -1.1359   -1.9938 C.ar    1  UNL1        0.0000
      9 C          -3.2518   -0.3421   -1.0264 C.ar    1  UNL1        0.0000
     10 C          -4.6028    0.0335   -0.9105 C.ar    1  UNL1        0.0000
     11 SI         -6.1942   -0.2632   -1.8727 Si      1  UNL1        0.0000
     12 C          -7.1008    0.8119   -0.5735 C.2     1  UNL1        0.0000
     13 C          -6.2591    1.2675    0.3790 C.2     1  UNL1        0.0000
     14 C          -4.9240    0.8257    0.1605 C.ar    1  UNL1        0.0000
     15 S          -3.5579    1.1453    1.0817 S.2     1  UNL1        0.0000
     16 C          -2.4968    0.2081    0.0405 C.ar    1  UNL1        0.0000
     17 C          -1.0923   -0.0358    0.1402 C.ar    1  UNL1        0.0000
     18 C          -0.1995    0.4850    1.2197 C.ar    1  UNL1        0.0000
     19 C          -0.5125    1.2525    2.2866 C.2     1  UNL1        0.0000
     20 C           3.1879   -1.0390   -0.0380 C.ar    1  UNL1        0.0000
     21 S           3.7578   -2.6825    0.1878 S.2     1  UNL1        0.0000
     22 C           5.4205   -2.2767   -0.1092 C.ar    1  UNL1        0.0000
     23 C           5.4848   -0.9536   -0.3533 C.ar    1  UNL1        0.0000
     24 N           6.6029   -0.2224   -0.6288 N.ar    1  UNL1        0.0000
     25 C           6.0609    1.0531   -0.7814 C.ar    1  UNL1        0.0000
     26 C           4.6612    1.0486   -0.5977 C.ar    1  UNL1        0.0000
     27 C           4.2815   -0.2888   -0.3130 C.ar    1  UNL1        0.0000
     28 H           1.3174    3.0701    3.3560 H       1  UNL1        0.0000
     29 H           0.8557    1.0118    4.7096 H       1  UNL1        0.0000
     30 H           3.0453    0.4955    2.3615 H       1  UNL1        0.0000
     31 H           1.3431   -1.7426   -1.6760 H       1  UNL1        0.0000
     32 H          -0.7651   -1.9922   -2.6735 H       1  UNL1        0.0000
     33 H          -3.1609   -1.5672   -2.8193 H       1  UNL1        0.0000
     34 H          -6.2257    0.3799   -3.2099 H       1  UNL1        0.0000
     35 H          -6.6775   -1.6659   -1.8325 H       1  UNL1        0.0000
     36 H          -8.1609    0.9924   -0.6528 H       1  UNL1        0.0000
     37 H          -6.5501    1.8935    1.2131 H       1  UNL1        0.0000
     38 H          -1.4584    1.6556    2.5918 H       1  UNL1        0.0000
     39 H           6.2107   -3.0133   -0.0817 H       1  UNL1        0.0000
     40 H           7.5600   -0.5457   -0.6972 H       1  UNL1        0.0000
     41 H           6.7217    1.8787   -1.0130 H       1  UNL1        0.0000
     42 H           4.0151    1.9142   -0.6652 H       1  UNL1        0.0000
@<TRIPOS>BOND
     1     1     2    1
     2     2     3    2
     3     3     4   ar
     4     4     5   ar
     5     5     6   ar
     6     6     7   ar
     7     7     8   ar
     8     8     9   ar
     9     9    10   ar
    10    10    11    1
    11    11    12    1
    12    12    13    2
    13    13    14    1
    14    14    15   ar
    15    15    16   ar
    16    16    17   ar
    17    17    18   ar
    18    18    19    2
    19     4    20    1
    20    20    21   ar
    21    21    22   ar
    22    22    23   ar
    23    23    24   ar
    24    24    25   ar
    25    25    26   ar
    26    26    27   ar
    27    19     1    1
    28    27    20   ar
    29    18     3   ar
    30    27    23   ar
    31    17     6   ar
    32    16     9   ar
    33    14    10   ar
    34     1    28    1
    35     1    29    1
    36     2    30    1
    37     5    31    1
    38     7    32    1
    39     8    33    1
    40    11    34    1
    41    11    35    1
    42    12    36    1
    43    13    37    1
    44    19    38    1
    45    22    39    1
    46    24    40    1
    47    25    41    1
    48    26    42    1
