@<TRIPOS>MOLECULE
*****
 44 50 0 0 0
SMALL
GASTEIGER

@<TRIPOS>ATOM
      1 C          -3.7580   -1.5059   -1.1414 C.3     1  UNL1       -0.0148
      2 C          -3.9980   -1.1445    0.2902 C.2     1  UNL1       -0.0719
      3 C          -2.8789   -0.6194    0.8167 C.ar    1  UNL1       -0.0133
      4 C          -2.6328   -0.1215    2.1742 C.ar    1  UNL1       -0.0070
      5 C          -3.6776    0.0636    3.0881 C.ar    1  UNL1       -0.0353
      6 C          -3.4018    0.6889    4.2872 C.ar    1  UNL1        0.0282
      7 N          -2.1879    1.1657    4.6087 N.ar    1  UNL1       -0.2626
      8 C          -1.1961    0.9680    3.7019 C.ar    1  UNL1        0.0359
      9 C          -1.3104    0.2658    2.4989 C.ar    1  UNL1        0.0092
     10 C          -0.1590    0.0633    1.5382 C.ar    1  UNL1        0.0016
     11 C           1.2203    0.0749    1.9259 C.ar    1  UNL1       -0.0088
     12 C           1.6973   -0.0874    3.2541 C.ar    1  UNL1       -0.0534
     13 C           3.0556   -0.0280    3.5861 C.ar    1  UNL1       -0.0611
     14 C           4.0029    0.1729    2.5958 C.ar    1  UNL1       -0.0611
     15 C           3.5939    0.2761    1.2707 C.ar    1  UNL1       -0.0534
     16 C           2.2242    0.2019    0.9265 C.ar    1  UNL1       -0.0081
     17 C           1.8707    0.2428   -0.4502 C.ar    1  UNL1        0.0087
     18 C           2.6085    0.3895   -1.6692 C.ar    1  UNL1       -0.0260
     19 C           1.7245    0.3159   -2.7222 C.ar    1  UNL1        0.0728
     20 N           0.4820    0.1185   -2.1790 N.ar    1  UNL1       -0.3520
     21 C           0.5344    0.0503   -0.8044 C.ar    1  UNL1        0.0560
     22 C          -0.4733   -0.1316    0.1572 C.ar    1  UNL1        0.0147
     23 C          -1.8321   -0.5759   -0.1994 C.ar    1  UNL1       -0.0115
     24 C          -2.3235   -1.1110   -1.3323 C.2     1  UNL1       -0.0719
     25 C           1.8948    0.4104   -4.1392 C.ar    1  UNL1        0.1243
     26 N           0.8645    0.3026   -4.9543 N.ar    1  UNL1       -0.2459
     27 C           1.2949    0.4303   -6.2611 C.ar    1  UNL1        0.0355
     28 C           2.6478    0.6325   -6.4256 C.ar    1  UNL1       -0.0042
     29 S           3.4149    0.6655   -4.8935 S.2     1  UNL1       -0.0742
     30 H          -3.8954   -2.5789   -1.3043 H       1  UNL1        0.0350
     31 H          -4.4156   -0.9432   -1.8102 H       1  UNL1        0.0350
     32 H          -4.9384   -1.3051    0.7930 H       1  UNL1        0.0581
     33 H          -4.6945   -0.2375    2.8678 H       1  UNL1        0.0639
     34 H          -4.1797    0.8559    5.0264 H       1  UNL1        0.0830
     35 H          -0.2701    1.4582    3.9888 H       1  UNL1        0.0836
     36 H           1.0124   -0.3199    4.0664 H       1  UNL1        0.0624
     37 H           3.3659   -0.1538    4.6205 H       1  UNL1        0.0618
     38 H           5.0587    0.2204    2.8478 H       1  UNL1        0.0618
     39 H           4.3571    0.3962    0.5063 H       1  UNL1        0.0624
     40 H           3.6766    0.5382   -1.7553 H       1  UNL1        0.0646
     41 H          -0.3578    0.0868   -2.7385 H       1  UNL1        0.1660
     42 H          -1.7978   -1.3175   -2.2489 H       1  UNL1        0.0581
     43 H           0.5721    0.3674   -7.0656 H       1  UNL1        0.0835
     44 H           3.2047    0.7587   -7.3426 H       1  UNL1        0.0709
@<TRIPOS>BOND
     1     1     2    1
     2     2     3    2
     3     3     4   ar
     4     4     5   ar
     5     5     6   ar
     6     6     7   ar
     7     7     8   ar
     8     8     9   ar
     9     9    10   ar
    10    10    11   ar
    11    11    12   ar
    12    12    13   ar
    13    13    14   ar
    14    14    15   ar
    15    15    16   ar
    16    16    17   ar
    17    17    18   ar
    18    18    19   ar
    19    19    20   ar
    20    20    21   ar
    21    21    22   ar
    22    22    23   ar
    23    23    24    2
    24    19    25    1
    25    25    26   ar
    26    26    27   ar
    27    27    28   ar
    28    28    29   ar
    29    24     1    1
    30    29    25   ar
    31    23     3   ar
    32     9     4   ar
    33    22    10   ar
    34    16    11   ar
    35    21    17   ar
    36     1    30    1
    37     1    31    1
    38     2    32    1
    39     5    33    1
    40     6    34    1
    41     8    35    1
    42    12    36    1
    43    13    37    1
    44    14    38    1
    45    15    39    1
    46    18    40    1
    47    20    41    1
    48    24    42    1
    49    27    43    1
    50    28    44    1
