@<TRIPOS>MOLECULE
*****
 44 51 0 0 0
SMALL
GASTEIGER

@<TRIPOS>ATOM
      1 C          -1.7300    0.7518   -4.0220 C.3     1  UNL1       -0.0148
      2 C          -3.0240    0.4450   -3.3386 C.2     1  UNL1       -0.0719
      3 C          -2.7927    0.1531   -2.0475 C.ar    1  UNL1       -0.0134
      4 C          -3.7660   -0.0740   -0.9755 C.ar    1  UNL1       -0.0070
      5 C          -5.1223   -0.3014   -1.2332 C.ar    1  UNL1       -0.0353
      6 C          -5.9593   -0.5616   -0.1667 C.ar    1  UNL1        0.0282
      7 N          -5.5343   -0.6331    1.1067 N.ar    1  UNL1       -0.2626
      8 C          -4.2120   -0.4153    1.3232 C.ar    1  UNL1        0.0359
      9 C          -3.2711   -0.0825    0.3480 C.ar    1  UNL1        0.0092
     10 C          -1.8265    0.1250    0.6174 C.ar    1  UNL1        0.0032
     11 C          -1.2308    0.4409    1.8461 C.ar    1  UNL1        0.0288
     12 C          -1.8320    0.8666    3.0071 C.ar    1  UNL1        0.1000
     13 O          -0.8958    1.0910    3.9729 O.2     1  UNL1       -0.4698
     14 C           0.3238    0.8409    3.4221 C.ar    1  UNL1        0.1000
     15 C           0.1762    0.4693    2.1081 C.ar    1  UNL1        0.0282
     16 C           1.2002    0.1441    1.1949 C.ar    1  UNL1       -0.0038
     17 C           2.5853    0.1118    1.5530 C.ar    1  UNL1       -0.0429
     18 C           3.5872   -0.2639    0.6526 C.ar    1  UNL1        0.0190
     19 C           4.9908   -0.3021    1.0227 C.ar    1  UNL1        0.0409
     20 C           5.6289   -1.0513    1.9936 C.ar    1  UNL1        0.0425
     21 N           6.9862   -0.8321    2.1335 N.ar    1  UNL1       -0.2551
     22 C           7.3655    0.0757    1.2617 C.ar    1  UNL1        0.0652
     23 S           6.1355    0.7282    0.2615 S.2     1  UNL1       -0.0754
     24 C           3.1480   -0.6855   -0.6286 C.ar    1  UNL1        0.1087
     25 N           3.9287   -1.1727   -1.6100 N.ar    1  UNL1       -0.1901
     26 S           2.9373   -1.6015   -2.8561 S.2     1  UNL1        0.1165
     27 N           1.4722   -1.1800   -2.2293 N.ar    1  UNL1       -0.1901
     28 C           1.6711   -0.6406   -1.0125 C.ar    1  UNL1        0.1088
     29 C           0.6417   -0.1412   -0.1125 C.ar    1  UNL1        0.0193
     30 C          -0.8058    0.0063   -0.4051 C.ar    1  UNL1        0.0007
     31 C          -1.3543    0.1909   -1.7800 C.ar    1  UNL1       -0.0128
     32 C          -0.7454    0.6161   -2.9021 C.2     1  UNL1       -0.0719
     33 H          -1.5212    0.0400   -4.8257 H       1  UNL1        0.0350
     34 H          -1.7307    1.7704   -4.4210 H       1  UNL1        0.0350
     35 H          -3.9834    0.5254   -3.8247 H       1  UNL1        0.0581
     36 H          -5.5254   -0.2947   -2.2387 H       1  UNL1        0.0639
     37 H          -7.0198   -0.7427   -0.3156 H       1  UNL1        0.0830
     38 H          -3.9350   -0.5715    2.3601 H       1  UNL1        0.0836
     39 H          -2.8448    1.0825    3.3163 H       1  UNL1        0.1036
     40 H           1.1621    0.9896    4.0881 H       1  UNL1        0.1036
     41 H           2.8840    0.3883    2.5639 H       1  UNL1        0.0631
     42 H           5.1486   -1.7807    2.6352 H       1  UNL1        0.0841
     43 H           8.3937    0.4032    1.1790 H       1  UNL1        0.0907
     44 H           0.2954    0.8688   -3.0226 H       1  UNL1        0.0581
@<TRIPOS>BOND
     1     1     2    1
     2     2     3    2
     3     3     4   ar
     4     4     5   ar
     5     5     6   ar
     6     6     7   ar
     7     7     8   ar
     8     8     9   ar
     9     9    10   ar
    10    10    11   ar
    11    11    12   ar
    12    12    13   ar
    13    13    14   ar
    14    14    15   ar
    15    15    16   ar
    16    16    17   ar
    17    17    18   ar
    18    18    19    1
    19    19    20   ar
    20    20    21   ar
    21    21    22   ar
    22    22    23   ar
    23    18    24   ar
    24    24    25   ar
    25    25    26   ar
    26    26    27   ar
    27    27    28   ar
    28    28    29   ar
    29    29    30   ar
    30    30    31   ar
    31    31    32    2
    32    32     1    1
    33    31     3   ar
    34     9     4   ar
    35    30    10   ar
    36    15    11   ar
    37    29    16   ar
    38    23    19   ar
    39    28    24   ar
    40     1    33    1
    41     1    34    1
    42     2    35    1
    43     5    36    1
    44     6    37    1
    45     8    38    1
    46    12    39    1
    47    14    40    1
    48    17    41    1
    49    20    42    1
    50    22    43    1
    51    32    44    1
