@<TRIPOS>MOLECULE
*****
 43 49 0 0 0
SMALL
GASTEIGER

@<TRIPOS>ATOM
      1 C          -3.2974    3.3385    0.5387 C.3     1  UNL1       -0.0148
      2 C          -4.3824    2.3303    0.3613 C.2     1  UNL1       -0.0719
      3 C          -3.8450    1.1305    0.0809 C.ar    1  UNL1       -0.0134
      4 C          -4.5379   -0.1369   -0.1692 C.ar    1  UNL1       -0.0070
      5 C          -5.9358   -0.2339   -0.1368 C.ar    1  UNL1       -0.0353
      6 C          -6.5235   -1.4587   -0.3816 C.ar    1  UNL1        0.0282
      7 N          -5.8235   -2.5720   -0.6514 N.ar    1  UNL1       -0.2626
      8 C          -4.4712   -2.4495   -0.6767 C.ar    1  UNL1        0.0359
      9 C          -3.7470   -1.2733   -0.4477 C.ar    1  UNL1        0.0085
     10 C          -2.2446   -1.1996   -0.4886 C.ar    1  UNL1       -0.0070
     11 C          -1.4755   -2.3373   -0.7682 C.ar    1  UNL1       -0.0528
     12 C          -0.0827   -2.2969   -0.8101 C.ar    1  UNL1       -0.0529
     13 C           0.6111   -1.0966   -0.5690 C.ar    1  UNL1       -0.0096
     14 C           2.0298   -0.8695   -0.5689 C.ar    1  UNL1       -0.0387
     15 C           2.3751    0.4323   -0.2977 C.ar    1  UNL1        0.0276
     16 S           0.9855    1.3736   -0.0394 S.2     1  UNL1       -0.0871
     17 C          -0.1250    0.0648   -0.2875 C.ar    1  UNL1        0.0282
     18 C          -1.5555    0.0358   -0.2428 C.ar    1  UNL1        0.0045
     19 C          -2.3837    1.2332    0.0485 C.ar    1  UNL1       -0.0124
     20 C          -2.0674    2.5151    0.3139 C.2     1  UNL1       -0.0719
     21 C           3.7075    0.9720   -0.2118 C.ar    1  UNL1        0.0333
     22 S           4.1380    2.5070   -0.9009 S.2     1  UNL1       -0.0953
     23 C           5.7910    2.3792   -0.4194 C.ar    1  UNL1       -0.0197
     24 C           6.0023    1.2035    0.2445 C.ar    1  UNL1       -0.0289
     25 C           7.1457    0.5081    0.9006 C.3     1  UNL1       -0.0081
     26 C           6.4500   -0.7606    1.4000 C.2     1  UNL1       -0.0791
     27 C           5.1382   -0.7653    1.0705 C.2     1  UNL1       -0.0568
     28 C           4.8257    0.4220    0.3554 C.ar    1  UNL1       -0.0066
     29 H          -3.3103    3.7624    1.5470 H       1  UNL1        0.0350
     30 H          -3.3763    4.1409   -0.2004 H       1  UNL1        0.0350
     31 H          -5.4293    2.5715    0.4522 H       1  UNL1        0.0581
     32 H          -6.5673    0.6205    0.0739 H       1  UNL1        0.0639
     33 H          -7.6029   -1.5774   -0.3662 H       1  UNL1        0.0830
     34 H          -3.9859   -3.3932   -0.9011 H       1  UNL1        0.0836
     35 H          -1.9291   -3.3038   -0.9658 H       1  UNL1        0.0624
     36 H           0.4705   -3.2072   -1.0323 H       1  UNL1        0.0624
     37 H           2.7579   -1.6448   -0.7748 H       1  UNL1        0.0635
     38 H          -1.0930    2.9658    0.3734 H       1  UNL1        0.0581
     39 H           6.4929    3.1681   -0.6507 H       1  UNL1        0.0696
     40 H           7.9372    0.2628    0.1871 H       1  UNL1        0.0356
     41 H           7.5480    1.0861    1.7371 H       1  UNL1        0.0356
     42 H           6.9560   -1.5384    1.9524 H       1  UNL1        0.0575
     43 H           4.4299   -1.5422    1.3211 H       1  UNL1        0.0621
@<TRIPOS>BOND
     1     1     2    1
     2     2     3    2
     3     3     4   ar
     4     4     5   ar
     5     5     6   ar
     6     6     7   ar
     7     7     8   ar
     8     8     9   ar
     9     9    10   ar
    10    10    11   ar
    11    11    12   ar
    12    12    13   ar
    13    13    14   ar
    14    14    15   ar
    15    15    16   ar
    16    16    17   ar
    17    17    18   ar
    18    18    19   ar
    19    19    20    2
    20    15    21    1
    21    21    22   ar
    22    22    23   ar
    23    23    24   ar
    24    24    25    1
    25    25    26    1
    26    26    27    2
    27    27    28    1
    28    20     1    1
    29    28    21   ar
    30    19     3   ar
    31    28    24   ar
    32     9     4   ar
    33    18    10   ar
    34    17    13   ar
    35     1    29    1
    36     1    30    1
    37     2    31    1
    38     5    32    1
    39     6    33    1
    40     8    34    1
    41    11    35    1
    42    12    36    1
    43    14    37    1
    44    20    38    1
    45    23    39    1
    46    25    40    1
    47    25    41    1
    48    26    42    1
    49    27    43    1
