@<TRIPOS>MOLECULE
*****
 46 52 0 0 0
SMALL
GASTEIGER

@<TRIPOS>ATOM
      1 C          -3.0459   -3.3671    0.5444 C.3     1  UNL1       -0.0148
      2 C          -4.1750   -2.3855    0.5054 C.2     1  UNL1       -0.0719
      3 C          -3.6952   -1.1599    0.2341 C.ar    1  UNL1       -0.0134
      4 C          -4.4337    0.0651   -0.0856 C.ar    1  UNL1       -0.0070
      5 C          -5.8149    0.1783    0.1020 C.ar    1  UNL1       -0.0353
      6 C          -6.4330    1.3592   -0.2594 C.ar    1  UNL1        0.0282
      7 N          -5.7768    2.4116   -0.7801 N.ar    1  UNL1       -0.2626
      8 C          -4.4364    2.2780   -0.9434 C.ar    1  UNL1        0.0359
      9 C          -3.6902    1.1389   -0.6286 C.ar    1  UNL1        0.0100
     10 C          -2.2036    1.0560   -0.7833 C.ar    1  UNL1        0.0106
     11 C          -1.4605    2.0324   -1.4395 C.ar    1  UNL1        0.0366
     12 N          -0.1106    2.0633   -1.5491 N.ar    1  UNL1       -0.2543
     13 C           0.6113    1.1440   -0.9075 C.ar    1  UNL1        0.0728
     14 C           2.0212    1.3009   -1.0096 C.ar    1  UNL1       -0.0273
     15 C           3.0124    0.5157   -0.3664 C.ar    1  UNL1       -0.0053
     16 C           4.4479    0.7207   -0.4973 C.ar    1  UNL1        0.0009
     17 C           5.0349    1.9744   -0.2869 C.ar    1  UNL1       -0.0511
     18 C           6.4119    2.1400   -0.4273 C.ar    1  UNL1       -0.0430
     19 C           7.1733    1.0395   -0.7804 C.ar    1  UNL1        0.0276
     20 N           6.6572   -0.1870   -0.9995 N.ar    1  UNL1       -0.2627
     21 C           5.3140   -0.3125   -0.8582 C.ar    1  UNL1        0.0353
     22 C           2.3938   -0.4257    0.4553 C.ar    1  UNL1        0.0079
     23 C           3.0144   -1.2589    1.3557 C.ar    1  UNL1        0.0100
     24 N           2.0275   -1.9254    2.0413 N.ar    1  UNL1       -0.3659
     25 C           0.7900   -1.5081    1.6049 C.ar    1  UNL1        0.0101
     26 C           0.9778   -0.6289    0.5631 C.ar    1  UNL1        0.0098
     27 C          -0.0209    0.0952   -0.1662 C.ar    1  UNL1        0.0178
     28 C          -1.4509   -0.0165   -0.2402 C.ar    1  UNL1        0.0014
     29 C          -2.2397   -1.2118    0.1319 C.ar    1  UNL1       -0.0128
     30 C          -1.8656   -2.5000    0.2292 C.2     1  UNL1       -0.0719
     31 H          -2.9496   -3.8295    1.5308 H       1  UNL1        0.0350
     32 H          -3.1759   -4.1423   -0.2166 H       1  UNL1        0.0350
     33 H          -5.2113   -2.6718    0.5924 H       1  UNL1        0.0581
     34 H          -6.4062   -0.6283    0.5184 H       1  UNL1        0.0639
     35 H          -7.5037    1.4933   -0.1351 H       1  UNL1        0.0830
     36 H          -3.9775    3.1780   -1.3411 H       1  UNL1        0.0836
     37 H          -1.9316    2.8700   -1.9460 H       1  UNL1        0.0836
     38 H           2.3650    2.1183   -1.6488 H       1  UNL1        0.0645
     39 H           4.4236    2.8278   -0.0021 H       1  UNL1        0.0625
     40 H           6.8773    3.1053   -0.2629 H       1  UNL1        0.0633
     41 H           8.2498    1.1182   -0.9010 H       1  UNL1        0.0829
     42 H           4.9365   -1.3124   -1.0598 H       1  UNL1        0.0836
     43 H           4.0546   -1.4131    1.6119 H       1  UNL1        0.0813
     44 H           2.1863   -2.5761    2.8003 H       1  UNL1        0.1648
     45 H          -0.0965   -1.8657    2.1088 H       1  UNL1        0.0813
     46 H          -0.8759   -2.8977    0.0684 H       1  UNL1        0.0581
@<TRIPOS>BOND
     1     1     2    1
     2     2     3    2
     3     3     4   ar
     4     4     5   ar
     5     5     6   ar
     6     6     7   ar
     7     7     8   ar
     8     8     9   ar
     9     9    10   ar
    10    10    11   ar
    11    11    12   ar
    12    12    13   ar
    13    13    14   ar
    14    14    15   ar
    15    15    16    1
    16    16    17   ar
    17    17    18   ar
    18    18    19   ar
    19    19    20   ar
    20    20    21   ar
    21    15    22   ar
    22    22    23   ar
    23    23    24   ar
    24    24    25   ar
    25    25    26   ar
    26    26    27   ar
    27    27    28   ar
    28    28    29   ar
    29    29    30    2
    30    30     1    1
    31    29     3   ar
    32     9     4   ar
    33    28    10   ar
    34    27    13   ar
    35    21    16   ar
    36    26    22   ar
    37     1    31    1
    38     1    32    1
    39     2    33    1
    40     5    34    1
    41     6    35    1
    42     8    36    1
    43    11    37    1
    44    14    38    1
    45    17    39    1
    46    18    40    1
    47    19    41    1
    48    21    42    1
    49    23    43    1
    50    24    44    1
    51    25    45    1
    52    30    46    1
