@<TRIPOS>MOLECULE
*****
 47 54 0 0 0
SMALL
GASTEIGER

@<TRIPOS>ATOM
      1 C          -3.7956   -2.5761   -0.9503 C.3     1  UNL1       -0.0148
      2 C          -4.7214   -1.4580   -0.5859 C.2     1  UNL1       -0.0719
      3 C          -4.0039   -0.3693   -0.2608 C.ar    1  UNL1       -0.0134
      4 C          -4.4694    1.0007   -0.0278 C.ar    1  UNL1       -0.0070
      5 C          -5.8218    1.3147    0.1402 C.ar    1  UNL1       -0.0353
      6 C          -6.1720    2.6385    0.3195 C.ar    1  UNL1        0.0282
      7 N          -5.2806    3.6455    0.3455 N.ar    1  UNL1       -0.2626
      8 C          -3.9747    3.3119    0.1886 C.ar    1  UNL1        0.0359
      9 C          -3.4862    2.0175   -0.0091 C.ar    1  UNL1        0.0100
     10 C          -2.0297    1.6932   -0.1291 C.ar    1  UNL1        0.0106
     11 C          -1.0497    2.6723   -0.2560 C.ar    1  UNL1        0.0366
     12 N           0.2872    2.4573   -0.2887 N.ar    1  UNL1       -0.2543
     13 C           0.7491    1.2217   -0.0934 C.ar    1  UNL1        0.0728
     14 C           2.1658    1.1021   -0.0584 C.ar    1  UNL1       -0.0272
     15 C           2.9131   -0.0699    0.2260 C.ar    1  UNL1       -0.0031
     16 C           4.3584   -0.1319    0.2863 C.ar    1  UNL1        0.0291
     17 C           5.0951   -0.5092    1.4190 C.ar    1  UNL1        0.0375
     18 N           6.4605   -0.5921    1.5581 N.ar    1  UNL1       -0.2604
     19 C           7.2829   -0.2755    0.5173 C.ar    1  UNL1        0.0557
     20 C           6.6923    0.1351   -0.6935 C.ar    1  UNL1        0.1185
     21 N           7.3380    0.4861   -1.8176 N.ar    1  UNL1       -0.1892
     22 S           6.1661    0.8770   -2.9261 S.2     1  UNL1        0.1165
     23 N           4.7951    0.6152   -2.0325 N.ar    1  UNL1       -0.1901
     24 C           5.1906    0.2099   -0.8112 C.ar    1  UNL1        0.1105
     25 C           2.0396   -1.1173    0.5146 C.ar    1  UNL1        0.0079
     26 C           2.3828   -2.3886    0.9101 C.ar    1  UNL1        0.0100
     27 N           1.2140   -3.0566    1.1883 N.ar    1  UNL1       -0.3659
     28 C           0.1368   -2.2277    0.9696 C.ar    1  UNL1        0.0101
     29 C           0.6079   -1.0414    0.4562 C.ar    1  UNL1        0.0098
     30 C          -0.1464    0.1196    0.0850 C.ar    1  UNL1        0.0178
     31 C          -1.5521    0.3583   -0.0897 C.ar    1  UNL1        0.0014
     32 C          -2.5789   -0.6817   -0.3210 C.ar    1  UNL1       -0.0128
     33 C          -2.4514   -1.9320   -0.7997 C.2     1  UNL1       -0.0719
     34 H          -3.9084   -3.4278   -0.2736 H       1  UNL1        0.0350
     35 H          -3.9608   -2.8991   -1.9824 H       1  UNL1        0.0350
     36 H          -5.7942   -1.5245   -0.6764 H       1  UNL1        0.0581
     37 H          -6.5935    0.5545    0.1324 H       1  UNL1        0.0639
     38 H          -7.2095    2.9318    0.4515 H       1  UNL1        0.0830
     39 H          -3.3180    4.1744    0.2497 H       1  UNL1        0.0836
     40 H          -1.2976    3.7251   -0.3569 H       1  UNL1        0.0836
     41 H           2.7266    2.0208   -0.2515 H       1  UNL1        0.0645
     42 H           4.5632   -0.7732    2.3349 H       1  UNL1        0.0836
     43 H           8.3506   -0.3528    0.6727 H       1  UNL1        0.0852
     44 H           3.3355   -2.8808    1.0533 H       1  UNL1        0.0813
     45 H           1.1551   -4.0029    1.5433 H       1  UNL1        0.1648
     46 H          -0.8563   -2.5738    1.2176 H       1  UNL1        0.0813
     47 H          -1.5341   -2.4210   -1.0879 H       1  UNL1        0.0581
@<TRIPOS>BOND
     1     1     2    1
     2     2     3    2
     3     3     4   ar
     4     4     5   ar
     5     5     6   ar
     6     6     7   ar
     7     7     8   ar
     8     8     9   ar
     9     9    10   ar
    10    10    11   ar
    11    11    12   ar
    12    12    13   ar
    13    13    14   ar
    14    14    15   ar
    15    15    16    1
    16    16    17   ar
    17    17    18   ar
    18    18    19   ar
    19    19    20   ar
    20    20    21   ar
    21    21    22   ar
    22    22    23   ar
    23    23    24   ar
    24    15    25   ar
    25    25    26   ar
    26    26    27   ar
    27    27    28   ar
    28    28    29   ar
    29    29    30   ar
    30    30    31   ar
    31    31    32   ar
    32    32    33    2
    33    33     1    1
    34    32     3   ar
    35     9     4   ar
    36    31    10   ar
    37    30    13   ar
    38    24    16   ar
    39    29    25   ar
    40    24    20   ar
    41     1    34    1
    42     1    35    1
    43     2    36    1
    44     5    37    1
    45     6    38    1
    46     8    39    1
    47    11    40    1
    48    14    41    1
    49    17    42    1
    50    19    43    1
    51    26    44    1
    52    27    45    1
    53    28    46    1
    54    33    47    1
