@<TRIPOS>MOLECULE
*****
 50 57 0 0 0
SMALL
GASTEIGER

@<TRIPOS>ATOM
      1 C          -3.1642    2.8581   -2.3761 C.3     1  UNL1        0.0000
      2 C          -4.2810    1.9007   -2.0938 C.2     1  UNL1        0.0000
      3 C          -3.8104    0.9011   -1.3388 C.ar    1  UNL1        0.0000
      4 C          -4.4655   -0.1588   -0.6822 C.ar    1  UNL1        0.0000
      5 C          -5.7915   -0.6233   -0.7068 C.ar    1  UNL1        0.0000
      6 C          -5.8145   -1.6737    0.1780 C.ar    1  UNL1        0.0000
      7 O          -4.5905   -1.8656    0.7345 O.2     1  UNL1        0.0000
      8 C          -3.7248   -0.9241    0.2166 C.ar    1  UNL1        0.0000
      9 C          -2.3064   -0.7777    0.5158 C.ar    1  UNL1        0.0000
     10 C          -1.5957    0.1055   -0.2686 C.ar    1  UNL1        0.0000
     11 C          -0.1055    0.1046   -0.1561 C.ar    1  UNL1        0.0000
     12 C           0.7993    0.4627   -1.1734 C.ar    1  UNL1        0.0000
     13 C           0.5403    0.6506   -2.5128 C.ar    1  UNL1        0.0000
     14 N           1.7292    0.9382   -3.1418 N.ar    1  UNL1        0.0000
     15 C           2.7664    0.8607   -2.2439 C.ar    1  UNL1        0.0000
     16 C           2.2296    0.5436   -1.0175 C.ar    1  UNL1        0.0000
     17 C           2.9283    0.2528    0.1594 C.ar    1  UNL1        0.0000
     18 C           2.0459   -0.2650    1.1378 C.ar    1  UNL1        0.0000
     19 C           0.6116   -0.3784    0.9852 C.ar    1  UNL1        0.0000
     20 C          -0.1984   -1.1562    1.9529 C.ar    1  UNL1        0.0000
     21 C           0.2584   -1.7321    3.0860 C.2     1  UNL1        0.0000
     22 SI         -1.0626   -2.7544    3.9161 Si      1  UNL1        0.0000
     23 C          -2.2129   -2.2557    2.5455 C.2     1  UNL1        0.0000
     24 C          -1.6235   -1.4396    1.6439 C.ar    1  UNL1        0.0000
     25 C           4.3696    0.3481    0.3204 C.2     1  UNL1        0.0000
     26 C           5.1863    1.3253   -0.1101 C.2     1  UNL1        0.0000
     27 C           6.5406    1.0361    0.2845 C.2     1  UNL1        0.0000
     28 C           6.5677   -0.1133    0.9726 C.2     1  UNL1        0.0000
     29 C           5.1771   -0.6733    1.0798 C.3     1  UNL1        0.0000
     30 C          -2.3748    1.0591   -1.0979 C.ar    1  UNL1        0.0000
     31 C          -2.0084    2.2315   -1.6487 C.2     1  UNL1        0.0000
     32 H          -3.3875    3.8502   -1.9727 H       1  UNL1        0.0000
     33 H          -2.9636    2.9320   -3.4488 H       1  UNL1        0.0000
     34 H          -5.3078    2.0502   -2.3880 H       1  UNL1        0.0000
     35 H          -6.6248   -0.2510   -1.2839 H       1  UNL1        0.0000
     36 H          -6.5857   -2.3542    0.5102 H       1  UNL1        0.0000
     37 H          -0.3683    0.5862   -3.0950 H       1  UNL1        0.0000
     38 H           1.8321    1.1161   -4.1324 H       1  UNL1        0.0000
     39 H           3.7852    0.9913   -2.5813 H       1  UNL1        0.0000
     40 H           2.4914   -0.6183    2.0653 H       1  UNL1        0.0000
     41 H           1.2487   -1.6999    3.5067 H       1  UNL1        0.0000
     42 H          -1.4559   -2.1995    5.2339 H       1  UNL1        0.0000
     43 H          -0.7394   -4.2016    3.9056 H       1  UNL1        0.0000
     44 H          -3.2393   -2.5820    2.5677 H       1  UNL1        0.0000
     45 H           4.8995    2.2135   -0.6527 H       1  UNL1        0.0000
     46 H           7.3875    1.6640    0.0531 H       1  UNL1        0.0000
     47 H           7.4475   -0.5754    1.3935 H       1  UNL1        0.0000
     48 H           4.8765   -0.7410    2.1299 H       1  UNL1        0.0000
     49 H           5.1189   -1.6606    0.6108 H       1  UNL1        0.0000
     50 H          -1.0347    2.6926   -1.5828 H       1  UNL1        0.0000
@<TRIPOS>BOND
     1     1     2    1
     2     2     3    2
     3     3     4   ar
     4     4     5   ar
     5     5     6   ar
     6     6     7   ar
     7     7     8   ar
     8     8     9   ar
     9     9    10   ar
    10    10    11   ar
    11    11    12   ar
    12    12    13   ar
    13    13    14   ar
    14    14    15   ar
    15    15    16   ar
    16    16    17   ar
    17    17    18   ar
    18    18    19   ar
    19    19    20   ar
    20    20    21    2
    21    21    22    1
    22    22    23    1
    23    23    24    2
    24    17    25    1
    25    25    26    2
    26    26    27    1
    27    27    28    2
    28    28    29    1
    29    10    30   ar
    30    30    31    2
    31    31     1    1
    32    30     3   ar
    33     8     4   ar
    34    24     9   ar
    35    29    25    1
    36    19    11   ar
    37    24    20   ar
    38    16    12   ar
    39     1    32    1
    40     1    33    1
    41     2    34    1
    42     5    35    1
    43     6    36    1
    44    13    37    1
    45    14    38    1
    46    15    39    1
    47    18    40    1
    48    21    41    1
    49    22    42    1
    50    22    43    1
    51    23    44    1
    52    26    45    1
    53    27    46    1
    54    28    47    1
    55    29    48    1
    56    29    49    1
    57    31    50    1
