@<TRIPOS>MOLECULE
*****
 36 41 0 0 0
SMALL
GASTEIGER

@<TRIPOS>ATOM
      1 C           3.0021    0.5780   -3.1438 C.3     1  UNL1       -0.0148
      2 C           3.7408    0.7899   -1.8546 C.2     1  UNL1       -0.0718
      3 C           2.8940    0.6315   -0.8298 C.ar    1  UNL1       -0.0104
      4 C           3.0980    0.7253    0.5685 C.ar    1  UNL1        0.0282
      5 C           4.1996    1.0042    1.3954 C.ar    1  UNL1       -0.0155
      6 C           3.7131    0.9370    2.6870 C.ar    1  UNL1        0.0932
      7 O           2.3813    0.6339    2.6979 O.2     1  UNL1       -0.4623
      8 C           2.0172    0.5070    1.3982 C.ar    1  UNL1        0.1437
      9 C           0.6683    0.1855    0.9809 C.ar    1  UNL1        0.0347
     10 C          -0.4556   -0.0438    1.7739 C.ar    1  UNL1        0.0113
     11 C          -0.5237   -0.0129    3.1448 C.ar    1  UNL1        0.0101
     12 N          -1.8188   -0.2961    3.4960 N.ar    1  UNL1       -0.3659
     13 C          -2.5820   -0.5083    2.3666 C.ar    1  UNL1        0.0101
     14 C          -1.7726   -0.3612    1.2626 C.ar    1  UNL1        0.0098
     15 C          -2.0827   -0.4784   -0.1097 C.ar    1  UNL1        0.0168
     16 C          -0.9212   -0.2409   -0.9161 C.ar    1  UNL1       -0.0430
     17 C           0.3882    0.0743   -0.4221 C.ar    1  UNL1       -0.0056
     18 C           1.5472    0.3075   -1.3372 C.ar    1  UNL1       -0.0133
     19 C           1.6036    0.2750   -2.6801 C.2     1  UNL1       -0.0719
     20 C          -3.3643   -0.7924   -0.7565 C.ar    1  UNL1        0.1088
     21 N          -3.4876   -0.8650   -2.0744 N.ar    1  UNL1       -0.2473
     22 C          -4.7819   -1.1724   -2.4371 C.ar    1  UNL1        0.0354
     23 C          -5.6598   -1.3374   -1.3937 C.ar    1  UNL1       -0.0042
     24 S          -4.8361   -1.0997    0.0827 S.2     1  UNL1       -0.0757
     25 H           3.4207   -0.2635   -3.7037 H       1  UNL1        0.0350
     26 H           3.0235    1.4799   -3.7625 H       1  UNL1        0.0350
     27 H           4.7895    1.0313   -1.7825 H       1  UNL1        0.0581
     28 H           5.2164    1.2262    1.1070 H       1  UNL1        0.0655
     29 H           4.1621    1.0722    3.6609 H       1  UNL1        0.1030
     30 H           0.2199    0.1823    3.9057 H       1  UNL1        0.0813
     31 H          -2.1643   -0.3427    4.4460 H       1  UNL1        0.1648
     32 H          -3.6268   -0.7419    2.4983 H       1  UNL1        0.0813
     33 H          -1.0529   -0.3075   -1.9976 H       1  UNL1        0.0631
     34 H           0.7880    0.0663   -3.3551 H       1  UNL1        0.0581
     35 H          -5.0312   -1.2648   -3.4869 H       1  UNL1        0.0835
     36 H          -6.7120   -1.5786   -1.4290 H       1  UNL1        0.0709
@<TRIPOS>BOND
     1     1     2    1
     2     2     3    2
     3     3     4   ar
     4     4     5   ar
     5     5     6   ar
     6     6     7   ar
     7     7     8   ar
     8     8     9   ar
     9     9    10   ar
    10    10    11   ar
    11    11    12   ar
    12    12    13   ar
    13    13    14   ar
    14    14    15   ar
    15    15    16   ar
    16    16    17   ar
    17    17    18   ar
    18    18    19    2
    19    15    20    1
    20    20    21   ar
    21    21    22   ar
    22    22    23   ar
    23    23    24   ar
    24    19     1    1
    25    24    20   ar
    26    18     3   ar
    27     8     4   ar
    28    17     9   ar
    29    14    10   ar
    30     1    25    1
    31     1    26    1
    32     2    27    1
    33     5    28    1
    34     6    29    1
    35    11    30    1
    36    12    31    1
    37    13    32    1
    38    16    33    1
    39    19    34    1
    40    22    35    1
    41    23    36    1
