@<TRIPOS>MOLECULE
*****
 40 46 0 0 0
SMALL
GASTEIGER

@<TRIPOS>ATOM
      1 C          -1.8952   -1.7643   -3.1848 C.3     1  UNL1       -0.0148
      2 C          -3.1574   -1.1857   -2.6309 C.2     1  UNL1       -0.0718
      3 C          -2.8773   -0.5127   -1.5082 C.ar    1  UNL1       -0.0104
      4 C          -3.7340    0.1992   -0.6356 C.ar    1  UNL1        0.0282
      5 C          -5.1153    0.4609   -0.6067 C.ar    1  UNL1       -0.0155
      6 C          -5.3180    1.2247    0.5255 C.ar    1  UNL1        0.0932
      7 O          -4.1442    1.4430    1.1865 O.2     1  UNL1       -0.4623
      8 C          -3.1817    0.8121    0.4688 C.ar    1  UNL1        0.1437
      9 C          -1.7798    0.8110    0.8507 C.ar    1  UNL1        0.0357
     10 C          -1.2064    1.4312    1.9722 C.ar    1  UNL1        0.0011
     11 C          -1.8868    2.1626    2.9240 C.ar    1  UNL1       -0.0159
     12 S          -0.8495    2.7775    4.1642 S.2     1  UNL1       -0.1038
     13 C           0.5460    2.0723    3.4486 C.ar    1  UNL1       -0.0160
     14 C           0.1693    1.4109    2.3168 C.ar    1  UNL1       -0.0010
     15 C           1.0504    0.6981    1.4486 C.ar    1  UNL1        0.0091
     16 C           2.4314    0.5262    1.5584 C.ar    1  UNL1       -0.0275
     17 C           2.7914   -0.2400    0.4646 C.ar    1  UNL1        0.0542
     18 N           1.6374   -0.4997   -0.2546 N.ar    1  UNL1       -0.3532
     19 C           0.5240    0.0703    0.3282 C.ar    1  UNL1        0.0560
     20 C          -0.8564    0.0972   -0.0070 C.ar    1  UNL1        0.0176
     21 C          -1.4273   -0.5788   -1.2141 C.ar    1  UNL1       -0.0113
     22 C          -0.8592   -1.3083   -2.1925 C.2     1  UNL1       -0.0719
     23 C           4.0862   -0.7243    0.0645 C.ar    1  UNL1        0.0355
     24 C           5.2901   -0.5196    0.7123 C.ar    1  UNL1       -0.0455
     25 C           6.3883   -1.1400    0.0466 C.ar    1  UNL1       -0.0541
     26 C           5.9909   -1.8017   -1.0921 C.ar    1  UNL1       -0.0237
     27 S           4.3071   -1.6728   -1.3515 S.2     1  UNL1       -0.0952
     28 H          -1.9452   -2.8564   -3.2249 H       1  UNL1        0.0350
     29 H          -1.6831   -1.3682   -4.1823 H       1  UNL1        0.0350
     30 H          -4.1325   -1.3015   -3.0776 H       1  UNL1        0.0581
     31 H          -5.8741    0.1442   -1.3070 H       1  UNL1        0.0655
     32 H          -6.1925    1.6702    0.9789 H       1  UNL1        0.1030
     33 H          -2.9403    2.3908    2.9911 H       1  UNL1        0.0700
     34 H           1.5214    2.1899    3.8981 H       1  UNL1        0.0700
     35 H           3.0959    0.9016    2.3240 H       1  UNL1        0.0645
     36 H           1.6393   -1.0438   -1.1011 H       1  UNL1        0.1659
     37 H           0.1750   -1.5703   -2.3163 H       1  UNL1        0.0581
     38 H           5.3882    0.0511    1.6275 H       1  UNL1        0.0629
     39 H           7.4156   -1.1012    0.3877 H       1  UNL1        0.0623
     40 H           6.6083   -2.3557   -1.7858 H       1  UNL1        0.0693
@<TRIPOS>BOND
     1     1     2    1
     2     2     3    2
     3     3     4   ar
     4     4     5   ar
     5     5     6   ar
     6     6     7   ar
     7     7     8   ar
     8     8     9   ar
     9     9    10   ar
    10    10    11   ar
    11    11    12   ar
    12    12    13   ar
    13    13    14   ar
    14    14    15   ar
    15    15    16   ar
    16    16    17   ar
    17    17    18   ar
    18    18    19   ar
    19    19    20   ar
    20    20    21   ar
    21    21    22    2
    22    17    23    1
    23    23    24   ar
    24    24    25   ar
    25    25    26   ar
    26    26    27   ar
    27    22     1    1
    28    27    23   ar
    29    21     3   ar
    30     8     4   ar
    31    20     9   ar
    32    14    10   ar
    33    19    15   ar
    34     1    28    1
    35     1    29    1
    36     2    30    1
    37     5    31    1
    38     6    32    1
    39    11    33    1
    40    13    34    1
    41    16    35    1
    42    18    36    1
    43    22    37    1
    44    24    38    1
    45    25    39    1
    46    26    40    1
