@<TRIPOS>MOLECULE
*****
 39 45 0 0 0
SMALL
GASTEIGER

@<TRIPOS>ATOM
      1 C          -3.0499   -2.6715    1.6589 C.3     1  UNL1       -0.0148
      2 C          -4.2463   -1.8644    1.2393 C.2     1  UNL1       -0.0718
      3 C          -3.8337   -0.7684    0.5913 C.ar    1  UNL1       -0.0102
      4 C          -4.5535    0.3025    0.0014 C.ar    1  UNL1        0.0297
      5 C          -5.9133    0.6310   -0.1360 C.ar    1  UNL1       -0.0155
      6 C          -5.9341    1.8290   -0.8261 C.ar    1  UNL1        0.0932
      7 O          -4.6694    2.2543   -1.1198 O.2     1  UNL1       -0.4607
      8 C          -3.8356    1.3136   -0.6092 C.ar    1  UNL1        0.1613
      9 C          -2.3833    1.4111   -0.7211 C.ar    1  UNL1        0.1178
     10 N          -1.8492    2.4803   -1.3580 N.ar    1  UNL1       -0.2504
     11 C          -0.4991    2.5637   -1.4581 C.ar    1  UNL1        0.0392
     12 C           0.3171    1.5656   -0.9142 C.ar    1  UNL1        0.0395
     13 C           1.7157    1.3321   -0.8337 C.ar    1  UNL1       -0.0060
     14 C           1.9111    0.1390   -0.1537 C.ar    1  UNL1        0.1450
     15 O           0.6772   -0.3643    0.1841 O.2     1  UNL1       -0.4535
     16 C          -0.2807    0.4890   -0.2706 C.ar    1  UNL1        0.1470
     17 C          -1.6528    0.3548   -0.1402 C.ar    1  UNL1        0.0542
     18 C          -2.3600   -0.7530    0.5258 C.ar    1  UNL1       -0.0083
     19 C          -1.8979   -1.8530    1.1426 C.2     1  UNL1       -0.0718
     20 C           3.1401   -0.5332    0.1858 C.ar    1  UNL1        0.0819
     21 S           3.0975   -2.0330    1.0472 S.2     1  UNL1       -0.0893
     22 C           4.8031   -2.1812    1.0683 C.ar    1  UNL1        0.0039
     23 C           5.4005   -1.1218    0.4388 C.ar    1  UNL1        0.0969
     24 N           6.7522   -1.0051    0.3215 N.ar    1  UNL1       -0.2514
     25 C           7.0820    0.1344   -0.3438 C.ar    1  UNL1        0.0464
     26 C           6.1665    1.0670   -0.8441 C.ar    1  UNL1        0.0464
     27 N           4.8121    0.9732   -0.7398 N.ar    1  UNL1       -0.2507
     28 C           4.4457   -0.1642   -0.0743 C.ar    1  UNL1        0.1069
     29 H          -3.0044   -2.7702    2.7475 H       1  UNL1        0.0350
     30 H          -3.0639   -3.6637    1.1984 H       1  UNL1        0.0350
     31 H          -5.2702   -2.1400    1.4377 H       1  UNL1        0.0581
     32 H          -6.7758    0.0825    0.2133 H       1  UNL1        0.0655
     33 H          -6.7270    2.4785   -1.1702 H       1  UNL1        0.1030
     34 H          -0.1082    3.4335   -1.9746 H       1  UNL1        0.0837
     35 H           2.4955    1.9678   -1.2301 H       1  UNL1        0.0662
     36 H          -0.8619   -2.1322    1.2638 H       1  UNL1        0.0581
     37 H           5.2819   -3.0290    1.5363 H       1  UNL1        0.0715
     38 H           8.1489    0.2933   -0.4746 H       1  UNL1        0.0845
     39 H           6.5230    1.9520   -1.3644 H       1  UNL1        0.0845
@<TRIPOS>BOND
     1     1     2    1
     2     2     3    2
     3     3     4   ar
     4     4     5   ar
     5     5     6   ar
     6     6     7   ar
     7     7     8   ar
     8     8     9   ar
     9     9    10   ar
    10    10    11   ar
    11    11    12   ar
    12    12    13   ar
    13    13    14   ar
    14    14    15   ar
    15    15    16   ar
    16    16    17   ar
    17    17    18   ar
    18    18    19    2
    19    14    20    1
    20    20    21   ar
    21    21    22   ar
    22    22    23   ar
    23    23    24   ar
    24    24    25   ar
    25    25    26   ar
    26    26    27   ar
    27    27    28   ar
    28    19     1    1
    29    28    20   ar
    30    18     3   ar
    31    28    23   ar
    32     8     4   ar
    33    17     9   ar
    34    16    12   ar
    35     1    29    1
    36     1    30    1
    37     2    31    1
    38     5    32    1
    39     6    33    1
    40    11    34    1
    41    13    35    1
    42    19    36    1
    43    22    37    1
    44    25    38    1
    45    26    39    1
