@<TRIPOS>MOLECULE
*****
 38 44 0 0 0
SMALL
GASTEIGER

@<TRIPOS>ATOM
      1 C          -1.9988   -2.6923   -2.6691 C.3     1  UNL1       -0.0148
      2 C          -3.2274   -2.0805   -2.0846 C.2     1  UNL1       -0.0719
      3 C          -2.8784   -1.1585   -1.1756 C.ar    1  UNL1       -0.0129
      4 C          -3.7118   -0.3295   -0.3733 C.ar    1  UNL1       -0.0028
      5 C          -5.1339   -0.2894   -0.3522 C.ar    1  UNL1       -0.0464
      6 C          -5.5967    0.6382    0.5515 C.ar    1  UNL1       -0.0231
      7 S          -4.3198    1.4377    1.3518 S.2     1  UNL1       -0.0960
      8 C          -3.1180    0.5637    0.5100 C.ar    1  UNL1        0.0283
      9 C          -1.6569    0.7095    0.6719 C.ar    1  UNL1        0.0088
     10 C          -0.9723    1.5782    1.5323 C.ar    1  UNL1        0.0293
     11 C          -1.4564    2.5047    2.4333 C.ar    1  UNL1        0.1000
     12 O          -0.4331    3.1524    3.0818 O.2     1  UNL1       -0.4698
     13 C           0.7396    2.6441    2.6000 C.ar    1  UNL1        0.1000
     14 C           0.4188    1.7030    1.6735 C.ar    1  UNL1        0.0287
     15 C           1.2751    0.8873    0.8863 C.ar    1  UNL1        0.0012
     16 C           2.6782    0.9228    0.9407 C.ar    1  UNL1       -0.0365
     17 C           3.2175    0.0106    0.0550 C.ar    1  UNL1        0.0455
     18 S           1.9811   -0.8290   -0.7852 S.2     1  UNL1       -0.0855
     19 C           0.6718   -0.0037    0.0048 C.ar    1  UNL1        0.0290
     20 C          -0.7613   -0.1149   -0.1241 C.ar    1  UNL1        0.0056
     21 C          -1.4117   -1.0722   -1.0717 C.ar    1  UNL1       -0.0124
     22 C          -0.9049   -1.9663   -1.9426 C.2     1  UNL1       -0.0719
     23 C           4.6309   -0.2199   -0.1504 C.ar    1  UNL1        0.1148
     24 N           5.5366    0.4599    0.5289 N.ar    1  UNL1       -0.2468
     25 C           6.8065    0.0636    0.1593 C.ar    1  UNL1        0.0355
     26 C           6.8649   -0.9190   -0.8026 C.ar    1  UNL1       -0.0042
     27 S           5.2782   -1.3659   -1.2638 S.2     1  UNL1       -0.0752
     28 H          -1.9412   -2.5143   -3.7469 H       1  UNL1        0.0350
     29 H          -1.9576   -3.7672   -2.4700 H       1  UNL1        0.0350
     30 H          -4.2321   -2.3541   -2.3663 H       1  UNL1        0.0581
     31 H          -5.7887   -0.9008   -0.9600 H       1  UNL1        0.0629
     32 H          -6.6242    0.8850    0.7805 H       1  UNL1        0.0694
     33 H          -2.4334    2.8387    2.7469 H       1  UNL1        0.1036
     34 H           1.6460    3.0578    3.0176 H       1  UNL1        0.1036
     35 H           3.2849    1.5599    1.5736 H       1  UNL1        0.0636
     36 H           0.1270   -2.1884   -2.1476 H       1  UNL1        0.0581
     37 H           7.6645    0.5298    0.6286 H       1  UNL1        0.0835
     38 H           7.7366   -1.3811   -1.2425 H       1  UNL1        0.0709
@<TRIPOS>BOND
     1     1     2    1
     2     2     3    2
     3     3     4   ar
     4     4     5   ar
     5     5     6   ar
     6     6     7   ar
     7     7     8   ar
     8     8     9   ar
     9     9    10   ar
    10    10    11   ar
    11    11    12   ar
    12    12    13   ar
    13    13    14   ar
    14    14    15   ar
    15    15    16   ar
    16    16    17   ar
    17    17    18   ar
    18    18    19   ar
    19    19    20   ar
    20    20    21   ar
    21    21    22    2
    22    17    23    1
    23    23    24   ar
    24    24    25   ar
    25    25    26   ar
    26    26    27   ar
    27    22     1    1
    28    27    23   ar
    29    21     3   ar
    30     8     4   ar
    31    20     9   ar
    32    14    10   ar
    33    19    15   ar
    34     1    28    1
    35     1    29    1
    36     2    30    1
    37     5    31    1
    38     6    32    1
    39    11    33    1
    40    13    34    1
    41    16    35    1
    42    22    36    1
    43    25    37    1
    44    26    38    1
