@<TRIPOS>MOLECULE
*****
 40 45 0 0 0
SMALL
GASTEIGER

@<TRIPOS>ATOM
      1 SI         -1.1740   -3.8368   -0.0447 Si      1  UNL1        0.0000
      2 C          -2.3567   -2.4315    0.2055 C.2     1  UNL1        0.0000
      3 C          -1.7297   -1.2356    0.1763 C.ar    1  UNL1        0.0000
      4 C          -2.4204    0.0536    0.1947 C.ar    1  UNL1        0.0000
      5 C          -1.6748    1.1669    0.0469 C.ar    1  UNL1        0.0000
      6 C          -0.1979    1.1518   -0.0661 C.ar    1  UNL1        0.0000
      7 C           0.4368    2.3889   -0.2420 C.ar    1  UNL1        0.0000
      8 C           1.8207    2.4703   -0.2664 C.ar    1  UNL1        0.0000
      9 C           2.5837    1.3164   -0.0384 C.ar    1  UNL1        0.0000
     10 C           3.9883    1.4390    0.0133 C.ar    1  UNL1        0.0000
     11 O           4.7149    2.5797   -0.1952 O.2     1  UNL1        0.0000
     12 C           6.0244    2.2539   -0.0478 C.ar    1  UNL1        0.0000
     13 C           6.1591    0.9210    0.2612 C.ar    1  UNL1        0.0000
     14 C           4.8450    0.3860    0.3037 C.ar    1  UNL1        0.0000
     15 C           4.2843   -0.8657    0.5805 C.ar    1  UNL1        0.0000
     16 C           2.8841   -1.0099    0.5208 C.ar    1  UNL1        0.0000
     17 C           1.9934    0.0414    0.1698 C.ar    1  UNL1        0.0000
     18 C           0.5643   -0.0496    0.0525 C.ar    1  UNL1        0.0000
     19 C          -0.2455   -1.3121    0.0448 C.ar    1  UNL1        0.0000
     20 C           0.1926   -2.5700   -0.1838 C.2     1  UNL1        0.0000
     21 C          -3.8282    0.2487    0.2915 C.ar    1  UNL1        0.0000
     22 C          -4.6505    0.8668    1.2136 C.ar    1  UNL1        0.0000
     23 C          -5.9830    0.7503    0.7473 C.ar    1  UNL1        0.0000
     24 C          -5.9405    0.0736   -0.4509 C.ar    1  UNL1        0.0000
     25 N          -4.6294   -0.2216   -0.7225 N.ar    1  UNL1        0.0000
     26 H          -1.0257   -4.6947    1.1552 H       1  UNL1        0.0000
     27 H          -1.4057   -4.5541   -1.3215 H       1  UNL1        0.0000
     28 H          -3.4160   -2.6119    0.2967 H       1  UNL1        0.0000
     29 H          -2.1516    2.1441    0.0259 H       1  UNL1        0.0000
     30 H          -0.1429    3.3019   -0.3571 H       1  UNL1        0.0000
     31 H           2.2983    3.4364   -0.4129 H       1  UNL1        0.0000
     32 H           6.7250    3.0653   -0.1872 H       1  UNL1        0.0000
     33 H           7.0883    0.3997    0.4403 H       1  UNL1        0.0000
     34 H           4.9095   -1.7107    0.8537 H       1  UNL1        0.0000
     35 H           2.4975   -1.9792    0.8178 H       1  UNL1        0.0000
     36 H           1.1806   -2.9115   -0.4334 H       1  UNL1        0.0000
     37 H          -4.3231    1.3448    2.1279 H       1  UNL1        0.0000
     38 H          -6.8754    1.1226    1.2333 H       1  UNL1        0.0000
     39 H          -6.7262   -0.2199   -1.1338 H       1  UNL1        0.0000
     40 H          -4.2939   -0.7083   -1.5436 H       1  UNL1        0.0000
@<TRIPOS>BOND
     1     1     2    1
     2     2     3    2
     3     3     4   ar
     4     4     5   ar
     5     5     6   ar
     6     6     7   ar
     7     7     8   ar
     8     8     9   ar
     9     9    10   ar
    10    10    11   ar
    11    11    12   ar
    12    12    13   ar
    13    13    14   ar
    14    14    15   ar
    15    15    16   ar
    16    16    17   ar
    17    17    18   ar
    18    18    19   ar
    19    19    20    2
    20     4    21    1
    21    21    22   ar
    22    22    23   ar
    23    23    24   ar
    24    24    25   ar
    25    20     1    1
    26    25    21   ar
    27    19     3   ar
    28    18     6   ar
    29    17     9   ar
    30    14    10   ar
    31     1    26    1
    32     1    27    1
    33     2    28    1
    34     5    29    1
    35     7    30    1
    36     8    31    1
    37    12    32    1
    38    13    33    1
    39    15    34    1
    40    16    35    1
    41    20    36    1
    42    22    37    1
    43    23    38    1
    44    24    39    1
    45    25    40    1
