@<TRIPOS>MOLECULE
*****
 45 52 0 0 0
SMALL
GASTEIGER

@<TRIPOS>ATOM
      1 C          -2.5637   -3.6345    0.3052 C.3     1  UNL1        0.0000
      2 C          -3.8411   -2.9366   -0.0129 C.2     1  UNL1        0.0000
      3 C          -3.6055   -1.6257   -0.1684 C.ar    1  UNL1        0.0000
      4 C          -4.5282   -0.5788   -0.4289 C.ar    1  UNL1        0.0000
      5 C          -5.9193   -0.7006   -0.7021 C.ar    1  UNL1        0.0000
      6 C          -6.4867    0.5234   -0.9641 C.ar    1  UNL1        0.0000
      7 S          -5.3368    1.7796   -0.8979 S.2     1  UNL1        0.0000
      8 C          -4.0655    0.7308   -0.4367 C.ar    1  UNL1        0.0000
      9 C          -2.6501    1.1134   -0.1982 C.ar    1  UNL1        0.0000
     10 C          -2.1287    2.4354   -0.1044 C.ar    1  UNL1        0.0000
     11 C          -2.8466    3.6066   -0.0023 C.ar    1  UNL1        0.0000
     12 S          -1.8545    5.0070    0.0705 S.2     1  UNL1        0.0000
     13 C          -0.4258    4.0702    0.0245 C.ar    1  UNL1        0.0000
     14 C          -0.7037    2.7247   -0.0400 C.ar    1  UNL1        0.0000
     15 C           0.2791    1.7364   -0.0560 C.ar    1  UNL1        0.0000
     16 C           1.7303    1.9456   -0.0631 C.2     1  UNL1        0.0000
     17 C           2.4411    0.8018   -0.1081 C.2     1  UNL1        0.0000
     18 SI          1.3282   -0.7116   -0.1118 Si      1  UNL1        0.0000
     19 C          -0.2319    0.3954   -0.0708 C.ar    1  UNL1        0.0000
     20 C          -1.6325    0.0647   -0.0915 C.ar    1  UNL1        0.0000
     21 C          -2.1738   -1.3347    0.0002 C.ar    1  UNL1        0.0000
     22 C          -1.5773   -2.5033    0.3080 C.2     1  UNL1        0.0000
     23 C           3.8641    0.7195   -0.1676 C.ar    1  UNL1        0.0000
     24 S           4.7723    1.9183   -1.0542 S.2     1  UNL1        0.0000
     25 C           6.2821    1.1967   -0.7065 C.ar    1  UNL1        0.0000
     26 C           6.1316    0.0714    0.0556 C.ar    1  UNL1        0.0000
     27 N           7.1871   -0.6849    0.4666 N.ar    1  UNL1        0.0000
     28 C           6.7618   -1.7399    1.2119 C.ar    1  UNL1        0.0000
     29 C           5.4259   -2.0217    1.5176 C.ar    1  UNL1        0.0000
     30 N           4.3557   -1.2839    1.1144 N.ar    1  UNL1        0.0000
     31 C           4.7482   -0.2104    0.3639 C.ar    1  UNL1        0.0000
     32 H          -2.3122   -4.3759   -0.4587 H       1  UNL1        0.0000
     33 H          -2.6105   -4.1166    1.2861 H       1  UNL1        0.0000
     34 H          -4.8000   -3.4268   -0.0741 H       1  UNL1        0.0000
     35 H          -6.4765   -1.6284   -0.7262 H       1  UNL1        0.0000
     36 H          -7.5169    0.7371   -1.2131 H       1  UNL1        0.0000
     37 H          -3.9084    3.7754    0.0549 H       1  UNL1        0.0000
     38 H           0.5303    4.5720    0.0651 H       1  UNL1        0.0000
     39 H           2.1592    2.9378   -0.0471 H       1  UNL1        0.0000
     40 H           1.4098   -1.5239    1.1308 H       1  UNL1        0.0000
     41 H           1.4074   -1.4870   -1.3781 H       1  UNL1        0.0000
     42 H          -0.5511   -2.6884    0.5649 H       1  UNL1        0.0000
     43 H           7.2017    1.6273   -1.0747 H       1  UNL1        0.0000
     44 H           7.5533   -2.3878    1.5783 H       1  UNL1        0.0000
     45 H           5.1782   -2.8892    2.1232 H       1  UNL1        0.0000
@<TRIPOS>BOND
     1     1     2    1
     2     2     3    2
     3     3     4   ar
     4     4     5   ar
     5     5     6   ar
     6     6     7   ar
     7     7     8   ar
     8     8     9   ar
     9     9    10   ar
    10    10    11   ar
    11    11    12   ar
    12    12    13   ar
    13    13    14   ar
    14    14    15   ar
    15    15    16    1
    16    16    17    2
    17    17    18    1
    18    18    19    1
    19    19    20   ar
    20    20    21   ar
    21    21    22    2
    22    17    23    1
    23    23    24   ar
    24    24    25   ar
    25    25    26   ar
    26    26    27   ar
    27    27    28   ar
    28    28    29   ar
    29    29    30   ar
    30    30    31   ar
    31    22     1    1
    32    31    23   ar
    33    21     3   ar
    34    31    26   ar
    35     8     4   ar
    36    20     9   ar
    37    14    10   ar
    38    19    15   ar
    39     1    32    1
    40     1    33    1
    41     2    34    1
    42     5    35    1
    43     6    36    1
    44    11    37    1
    45    13    38    1
    46    16    39    1
    47    18    40    1
    48    18    41    1
    49    22    42    1
    50    25    43    1
    51    28    44    1
    52    29    45    1
