@<TRIPOS>MOLECULE
*****
 45 52 0 0 0
SMALL
GASTEIGER

@<TRIPOS>ATOM
      1 C           3.6647   -1.3266    3.3567 C.3     1  UNL1       -0.0148
      2 C           4.7152   -1.0328    2.3363 C.2     1  UNL1       -0.0719
      3 C           4.1353   -0.5526    1.2271 C.ar    1  UNL1       -0.0130
      4 C           4.7339   -0.0179    0.0551 C.ar    1  UNL1       -0.0028
      5 C           6.1053   -0.0509   -0.3177 C.ar    1  UNL1       -0.0464
      6 C           6.3028    0.5322   -1.5476 C.ar    1  UNL1       -0.0231
      7 S           4.8402    1.0846   -2.2323 S.2     1  UNL1       -0.0960
      8 C           3.9194    0.6325   -0.8638 C.ar    1  UNL1        0.0282
      9 C           2.4510    0.7630   -0.7179 C.ar    1  UNL1        0.0058
     10 C           1.5660    1.5252   -1.5078 C.ar    1  UNL1       -0.0015
     11 C           1.9221    2.4928   -2.4210 C.ar    1  UNL1       -0.0160
     12 S           0.5711    3.2139   -3.1930 S.2     1  UNL1       -0.1038
     13 C          -0.5260    2.2762   -2.2758 C.ar    1  UNL1       -0.0160
     14 C           0.1206    1.4353   -1.3965 C.ar    1  UNL1       -0.0024
     15 C          -0.5651    0.5584   -0.5106 C.ar    1  UNL1       -0.0056
     16 C          -1.9716    0.3988   -0.4436 C.ar    1  UNL1       -0.0268
     17 C          -2.5020   -0.5282    0.4365 C.ar    1  UNL1        0.0788
     18 N          -1.7169   -1.2969    1.2153 N.ar    1  UNL1       -0.2538
     19 C          -0.3713   -1.1165    1.1331 C.ar    1  UNL1        0.0366
     20 C           0.3101   -0.1825    0.3358 C.ar    1  UNL1        0.0092
     21 C           1.7642    0.0027    0.3116 C.ar    1  UNL1        0.0004
     22 C           2.6751   -0.5367    1.3804 C.ar    1  UNL1       -0.0128
     23 C           2.4067   -0.9217    2.6437 C.2     1  UNL1       -0.0719
     24 C          -3.9414   -0.7536    0.5511 C.ar    1  UNL1        0.0467
     25 S          -4.6618   -1.2397    2.0702 S.2     1  UNL1       -0.0924
     26 C          -6.2768   -1.2694    1.4385 C.ar    1  UNL1        0.0002
     27 C          -6.2159   -0.9231    0.1384 C.ar    1  UNL1        0.0542
     28 N          -7.2639   -0.8296   -0.7297 N.ar    1  UNL1       -0.3602
     29 C          -6.6111   -0.4543   -1.9016 C.ar    1  UNL1        0.0028
     30 C          -5.2181   -0.3381   -1.7056 C.ar    1  UNL1       -0.0355
     31 C          -4.9555   -0.6444   -0.3416 C.ar    1  UNL1        0.0159
     32 H           3.6472   -2.3879    3.6205 H       1  UNL1        0.0350
     33 H           3.8141   -0.7243    4.2577 H       1  UNL1        0.0350
     34 H           5.7750   -1.1308    2.5129 H       1  UNL1        0.0581
     35 H           6.9047   -0.4902    0.2655 H       1  UNL1        0.0629
     36 H           7.2331    0.6408   -2.0878 H       1  UNL1        0.0694
     37 H           2.8943    2.8667   -2.6978 H       1  UNL1        0.0700
     38 H          -1.5841    2.4199   -2.4393 H       1  UNL1        0.0700
     39 H          -2.6326    0.9900   -1.0647 H       1  UNL1        0.0645
     40 H           0.1653   -1.8404    1.7378 H       1  UNL1        0.0836
     41 H           1.4534   -0.9185    3.1477 H       1  UNL1        0.0581
     42 H          -7.1317   -1.5333    2.0444 H       1  UNL1        0.0714
     43 H          -8.2449   -1.0003   -0.5447 H       1  UNL1        0.1653
     44 H          -7.1950   -0.3043   -2.8009 H       1  UNL1        0.0807
     45 H          -4.5051   -0.0737   -2.4749 H       1  UNL1        0.0639
@<TRIPOS>BOND
     1     1     2    1
     2     2     3    2
     3     3     4   ar
     4     4     5   ar
     5     5     6   ar
     6     6     7   ar
     7     7     8   ar
     8     8     9   ar
     9     9    10   ar
    10    10    11   ar
    11    11    12   ar
    12    12    13   ar
    13    13    14   ar
    14    14    15   ar
    15    15    16   ar
    16    16    17   ar
    17    17    18   ar
    18    18    19   ar
    19    19    20   ar
    20    20    21   ar
    21    21    22   ar
    22    22    23    2
    23    17    24    1
    24    24    25   ar
    25    25    26   ar
    26    26    27   ar
    27    27    28   ar
    28    28    29   ar
    29    29    30   ar
    30    30    31   ar
    31    23     1    1
    32    31    24   ar
    33    22     3   ar
    34    31    27   ar
    35     8     4   ar
    36    21     9   ar
    37    14    10   ar
    38    20    15   ar
    39     1    32    1
    40     1    33    1
    41     2    34    1
    42     5    35    1
    43     6    36    1
    44    11    37    1
    45    13    38    1
    46    16    39    1
    47    19    40    1
    48    23    41    1
    49    26    42    1
    50    28    43    1
    51    29    44    1
    52    30    45    1
