@<TRIPOS>MOLECULE
*****
 45 51 0 0 0
SMALL
GASTEIGER

@<TRIPOS>ATOM
      1 C          -4.9692   -2.2852    1.7163 C.3     1  UNL1       -0.0148
      2 C          -5.5216   -1.1639    0.8874 C.2     1  UNL1       -0.0719
      3 C          -4.5102   -0.4592    0.3613 C.ar    1  UNL1       -0.0130
      4 C          -4.5154    0.6844   -0.4870 C.ar    1  UNL1       -0.0028
      5 C          -5.6298    1.3945   -1.0093 C.ar    1  UNL1       -0.0464
      6 C          -5.2288    2.4523   -1.7957 C.ar    1  UNL1       -0.0231
      7 S          -3.5246    2.5763   -1.8944 S.2     1  UNL1       -0.0960
      8 C          -3.2945    1.2149   -0.8858 C.ar    1  UNL1        0.0276
      9 C          -1.9674    0.6739   -0.4899 C.ar    1  UNL1       -0.0024
     10 C          -0.7483    1.2333   -0.9112 C.ar    1  UNL1       -0.0446
     11 C           0.5185    0.7121   -0.5288 C.ar    1  UNL1       -0.0095
     12 C           0.5033   -0.4217    0.3152 C.ar    1  UNL1       -0.0160
     13 C           1.7061   -0.9923    0.7334 C.ar    1  UNL1       -0.0427
     14 C           2.9460   -0.4763    0.3352 C.ar    1  UNL1        0.0255
     15 C           4.1366   -1.1596    0.8315 C.ar    1  UNL1        0.1354
     16 C           4.6106   -1.4626    2.0922 C.ar    1  UNL1       -0.0159
     17 C           5.8148   -2.1847    1.9057 C.ar    1  UNL1       -0.0233
     18 C           5.9915   -2.2886    0.5462 C.ar    1  UNL1        0.0926
     19 O           4.9758   -1.6746   -0.1138 O.2     1  UNL1       -0.4629
     20 C           3.0017    0.6650   -0.5031 C.ar    1  UNL1       -0.0066
     21 C           4.2318    1.2434   -0.9092 C.ar    1  UNL1       -0.0533
     22 C           4.2929    2.3655   -1.7317 C.ar    1  UNL1       -0.0611
     23 C           3.1198    2.9472   -2.1709 C.ar    1  UNL1       -0.0611
     24 C           1.8929    2.4061   -1.7815 C.ar    1  UNL1       -0.0534
     25 C           1.7859    1.2649   -0.9426 C.ar    1  UNL1       -0.0095
     26 C          -0.7085   -0.9921    0.7431 C.ar    1  UNL1       -0.0457
     27 C          -1.9404   -0.4614    0.3533 C.ar    1  UNL1       -0.0088
     28 C          -3.2331   -1.0369    0.7852 C.ar    1  UNL1       -0.0134
     29 C          -3.4851   -2.0977    1.5723 C.2     1  UNL1       -0.0719
     30 H          -5.2776   -2.1918    2.7616 H       1  UNL1        0.0350
     31 H          -5.2826   -3.2570    1.3240 H       1  UNL1        0.0350
     32 H          -6.5738   -0.9719    0.7483 H       1  UNL1        0.0581
     33 H          -6.6689    1.1526   -0.8258 H       1  UNL1        0.0629
     34 H          -5.8542    3.1618   -2.3197 H       1  UNL1        0.0694
     35 H          -0.7878    2.1027   -1.5585 H       1  UNL1        0.0630
     36 H           1.6876   -1.8732    1.3745 H       1  UNL1        0.0631
     37 H           4.1442   -1.1894    3.0283 H       1  UNL1        0.0655
     38 H           6.4700   -2.5843    2.6666 H       1  UNL1        0.0649
     39 H           6.7454   -2.7448   -0.0801 H       1  UNL1        0.1029
     40 H           5.1777    0.8151   -0.5822 H       1  UNL1        0.0624
     41 H           5.2553    2.7758   -2.0241 H       1  UNL1        0.0618
     42 H           3.1493    3.8222   -2.8146 H       1  UNL1        0.0618
     43 H           1.0069    2.9105   -2.1567 H       1  UNL1        0.0624
     44 H          -0.6844   -1.8657    1.3902 H       1  UNL1        0.0630
     45 H          -2.7582   -2.7395    2.0445 H       1  UNL1        0.0581
@<TRIPOS>BOND
     1     1     2    1
     2     2     3    2
     3     3     4   ar
     4     4     5   ar
     5     5     6   ar
     6     6     7   ar
     7     7     8   ar
     8     8     9   ar
     9     9    10   ar
    10    10    11   ar
    11    11    12   ar
    12    12    13   ar
    13    13    14   ar
    14    14    15    1
    15    15    16   ar
    16    16    17   ar
    17    17    18   ar
    18    18    19   ar
    19    14    20   ar
    20    20    21   ar
    21    21    22   ar
    22    22    23   ar
    23    23    24   ar
    24    24    25   ar
    25    12    26   ar
    26    26    27   ar
    27    27    28   ar
    28    28    29    2
    29    29     1    1
    30    28     3   ar
    31     8     4   ar
    32    27     9   ar
    33    25    11   ar
    34    19    15   ar
    35    25    20   ar
    36     1    30    1
    37     1    31    1
    38     2    32    1
    39     5    33    1
    40     6    34    1
    41    10    35    1
    42    13    36    1
    43    16    37    1
    44    17    38    1
    45    18    39    1
    46    21    40    1
    47    22    41    1
    48    23    42    1
    49    24    43    1
    50    26    44    1
    51    29    45    1
