@<TRIPOS>MOLECULE
*****
 47 53 0 0 0
SMALL
GASTEIGER

@<TRIPOS>ATOM
      1 C          -5.5051    2.2873    1.6697 C.3     1  UNL1       -0.0148
      2 C          -6.0685    1.4660    0.5486 C.2     1  UNL1       -0.0719
      3 C          -5.0870    0.7472   -0.0145 C.ar    1  UNL1       -0.0130
      4 C          -5.1174   -0.1732   -1.1003 C.ar    1  UNL1       -0.0028
      5 C          -6.2307   -0.5755   -1.8869 C.ar    1  UNL1       -0.0464
      6 C          -5.8631   -1.4884   -2.8510 C.ar    1  UNL1       -0.0231
      7 S          -4.1907   -1.8480   -2.7974 S.2     1  UNL1       -0.0960
      8 C          -3.9308   -0.7866   -1.4817 C.ar    1  UNL1        0.0276
      9 C          -2.6104   -0.5571   -0.8387 C.ar    1  UNL1       -0.0027
     10 C          -1.4371   -1.2027   -1.2612 C.ar    1  UNL1       -0.0489
     11 C          -0.2519   -0.9237   -0.5989 C.ar    1  UNL1       -0.0353
     12 C           1.1197   -1.4768   -0.8556 C.3     1  UNL1       -0.0012
     13 C           1.9153   -0.7480    0.2042 C.2     1  UNL1       -0.0348
     14 C           1.1609    0.0686    0.9611 C.2     1  UNL1       -0.0502
     15 C          -0.2038   -0.0209    0.4701 C.ar    1  UNL1       -0.0206
     16 C          -1.3404    0.6312    0.9116 C.ar    1  UNL1       -0.0460
     17 C          -2.5561    0.3691    0.2605 C.ar    1  UNL1       -0.0088
     18 C          -3.8210    1.0230    0.6672 C.ar    1  UNL1       -0.0134
     19 C          -4.0497    1.9154    1.6469 C.2     1  UNL1       -0.0719
     20 C           3.3525   -0.9745    0.3738 C.ar    1  UNL1       -0.0138
     21 C           3.7468   -2.2172    0.8937 C.ar    1  UNL1       -0.0537
     22 C           5.0919   -2.5040    1.1017 C.ar    1  UNL1       -0.0606
     23 C           6.0589   -1.5512    0.7922 C.ar    1  UNL1       -0.0540
     24 C           5.6980   -0.3010    0.2672 C.ar    1  UNL1       -0.0173
     25 C           6.6890    0.6453   -0.0440 C.ar    1  UNL1       -0.0540
     26 C           6.3535    1.8895   -0.5757 C.ar    1  UNL1       -0.0612
     27 C           5.0211    2.2036   -0.8064 C.ar    1  UNL1       -0.0611
     28 C           4.0242    1.2743   -0.5010 C.ar    1  UNL1       -0.0535
     29 C           4.3309    0.0056    0.0472 C.ar    1  UNL1       -0.0105
     30 H          -5.9650    2.0184    2.6252 H       1  UNL1        0.0350
     31 H          -5.6409    3.3564    1.4822 H       1  UNL1        0.0350
     32 H          -7.1068    1.4678    0.2564 H       1  UNL1        0.0581
     33 H          -7.2463   -0.2225   -1.7618 H       1  UNL1        0.0629
     34 H          -6.4957   -1.9643   -3.5874 H       1  UNL1        0.0694
     35 H          -1.4346   -1.9077   -2.0855 H       1  UNL1        0.0627
     36 H           1.4644   -1.2172   -1.8612 H       1  UNL1        0.0362
     37 H           1.1365   -2.5604   -0.7046 H       1  UNL1        0.0362
     38 H           1.4804    0.6838    1.7870 H       1  UNL1        0.0627
     39 H          -1.2776    1.3251    1.7417 H       1  UNL1        0.0630
     40 H          -3.3229    2.3238    2.3313 H       1  UNL1        0.0581
     41 H           3.0016   -2.9663    1.1533 H       1  UNL1        0.0624
     42 H           5.3869   -3.4672    1.5094 H       1  UNL1        0.0618
     43 H           7.1055   -1.7941    0.9640 H       1  UNL1        0.0624
     44 H           7.7393    0.4168    0.1249 H       1  UNL1        0.0624
     45 H           7.1329    2.6089   -0.8117 H       1  UNL1        0.0618
     46 H           4.7517    3.1694   -1.2255 H       1  UNL1        0.0618
     47 H           2.9918    1.5519   -0.7026 H       1  UNL1        0.0624
@<TRIPOS>BOND
     1     1     2    1
     2     2     3    2
     3     3     4   ar
     4     4     5   ar
     5     5     6   ar
     6     6     7   ar
     7     7     8   ar
     8     8     9   ar
     9     9    10   ar
    10    10    11   ar
    11    11    12    1
    12    12    13    1
    13    13    14    2
    14    14    15    1
    15    15    16   ar
    16    16    17   ar
    17    17    18   ar
    18    18    19    2
    19    13    20    1
    20    20    21   ar
    21    21    22   ar
    22    22    23   ar
    23    23    24   ar
    24    24    25   ar
    25    25    26   ar
    26    26    27   ar
    27    27    28   ar
    28    28    29   ar
    29    19     1    1
    30    29    20   ar
    31    18     3   ar
    32    29    24   ar
    33     8     4   ar
    34    17     9   ar
    35    15    11   ar
    36     1    30    1
    37     1    31    1
    38     2    32    1
    39     5    33    1
    40     6    34    1
    41    10    35    1
    42    12    36    1
    43    12    37    1
    44    14    38    1
    45    16    39    1
    46    19    40    1
    47    21    41    1
    48    22    42    1
    49    23    43    1
    50    25    44    1
    51    26    45    1
    52    27    46    1
    53    28    47    1
