@<TRIPOS>MOLECULE
*****
 39 44 0 0 0
SMALL
GASTEIGER

@<TRIPOS>ATOM
      1 C          -4.1210   -1.9473    2.2762 C.3     1  UNL1       -0.0148
      2 C          -4.8598   -1.2349    1.1827 C.2     1  UNL1       -0.0719
      3 C          -3.9821   -0.6070    0.3879 C.ar    1  UNL1       -0.0130
      4 C          -4.1854    0.1929   -0.7724 C.ar    1  UNL1       -0.0028
      5 C          -5.4094    0.5423   -1.4041 C.ar    1  UNL1       -0.0464
      6 C          -5.1964    1.3361   -2.5100 C.ar    1  UNL1       -0.0231
      7 S          -3.5342    1.6491   -2.7721 S.2     1  UNL1       -0.0960
      8 C          -3.0719    0.7265   -1.4094 C.ar    1  UNL1        0.0277
      9 C          -1.6675    0.5253   -0.9686 C.ar    1  UNL1       -0.0010
     10 C          -0.5653    1.0788   -1.6380 C.ar    1  UNL1       -0.0269
     11 C           0.7376    0.8753   -1.2040 C.ar    1  UNL1        0.0716
     12 N           1.7497    1.4288   -1.8902 N.ar    1  UNL1       -0.2543
     13 C           3.0133    1.2134   -1.4466 C.ar    1  UNL1        0.0374
     14 C           3.3409    0.4636   -0.3238 C.ar    1  UNL1        0.0170
     15 C           2.2770   -0.1073    0.3757 C.ar    1  UNL1       -0.0420
     16 C           0.9539    0.0893   -0.0538 C.ar    1  UNL1        0.0016
     17 C          -0.1332   -0.4784    0.6326 C.ar    1  UNL1       -0.0442
     18 C          -1.4422   -0.2686    0.1876 C.ar    1  UNL1       -0.0087
     19 C          -2.6207   -0.8425    0.8734 C.ar    1  UNL1       -0.0134
     20 C          -2.6867   -1.6191    1.9691 C.2     1  UNL1       -0.0719
     21 C           4.7306    0.2806    0.0921 C.ar    1  UNL1        0.0479
     22 C           5.8894    0.1767   -0.6616 C.ar    1  UNL1       -0.0364
     23 C           6.9833    0.0225    0.2234 C.ar    1  UNL1       -0.0438
     24 C           6.4775    0.0462    1.5009 C.ar    1  UNL1        0.0022
     25 N           5.1198    0.2063    1.4136 N.ar    1  UNL1       -0.3606
     26 H          -4.2956   -3.0263    2.2321 H       1  UNL1        0.0350
     27 H          -4.4095   -1.5663    3.2602 H       1  UNL1        0.0350
     28 H          -5.9326   -1.2400    1.0704 H       1  UNL1        0.0581
     29 H          -6.3943    0.2353   -1.0760 H       1  UNL1        0.0629
     30 H          -5.9368    1.7500   -3.1805 H       1  UNL1        0.0694
     31 H          -0.7033    1.6890   -2.5269 H       1  UNL1        0.0645
     32 H           3.7820    1.6951   -2.0455 H       1  UNL1        0.0836
     33 H           2.4693   -0.7278    1.2470 H       1  UNL1        0.0631
     34 H           0.0509   -1.0849    1.5150 H       1  UNL1        0.0630
     35 H          -1.8587   -1.9735    2.5625 H       1  UNL1        0.0581
     36 H           5.9442    0.1975   -1.7430 H       1  UNL1        0.0639
     37 H           8.0260   -0.0900   -0.0447 H       1  UNL1        0.0633
     38 H           6.9653   -0.0318    2.4633 H       1  UNL1        0.0807
     39 H           4.4961    0.2842    2.2055 H       1  UNL1        0.1653
@<TRIPOS>BOND
     1     1     2    1
     2     2     3    2
     3     3     4   ar
     4     4     5   ar
     5     5     6   ar
     6     6     7   ar
     7     7     8   ar
     8     8     9   ar
     9     9    10   ar
    10    10    11   ar
    11    11    12   ar
    12    12    13   ar
    13    13    14   ar
    14    14    15   ar
    15    15    16   ar
    16    16    17   ar
    17    17    18   ar
    18    18    19   ar
    19    19    20    2
    20    14    21    1
    21    21    22   ar
    22    22    23   ar
    23    23    24   ar
    24    24    25   ar
    25    20     1    1
    26    25    21   ar
    27    19     3   ar
    28     8     4   ar
    29    18     9   ar
    30    16    11   ar
    31     1    26    1
    32     1    27    1
    33     2    28    1
    34     5    29    1
    35     6    30    1
    36    10    31    1
    37    13    32    1
    38    15    33    1
    39    17    34    1
    40    20    35    1
    41    22    36    1
    42    23    37    1
    43    24    38    1
    44    25    39    1
