@<TRIPOS>MOLECULE
*****
 43 49 0 0 0
SMALL
GASTEIGER

@<TRIPOS>ATOM
      1 C           2.6211    3.2762    0.2747 C.3     1  UNL1       -0.0148
      2 C           3.8388    2.4142    0.1509 C.2     1  UNL1       -0.0719
      3 C           3.4620    1.1420   -0.0390 C.ar    1  UNL1       -0.0130
      4 C           4.2368    0.0086   -0.4060 C.ar    1  UNL1       -0.0028
      5 C           5.6486   -0.1331   -0.4591 C.ar    1  UNL1       -0.0464
      6 C           6.0103   -1.3847   -0.9092 C.ar    1  UNL1       -0.0231
      7 S           4.6503   -2.3629   -1.2654 S.2     1  UNL1       -0.0960
      8 C           3.5587   -1.1261   -0.8210 C.ar    1  UNL1        0.0291
      9 C           2.0859   -1.2650   -0.8327 C.ar    1  UNL1        0.0157
     10 C           1.4250   -2.3293   -1.4083 C.ar    1  UNL1        0.0371
     11 N           0.0839   -2.4576   -1.4164 N.ar    1  UNL1       -0.2543
     12 C          -0.6486   -1.5811   -0.7173 C.ar    1  UNL1        0.0728
     13 C          -2.0109   -1.7859   -0.7566 C.ar    1  UNL1       -0.0269
     14 C          -2.9097   -1.0010   -0.0300 C.ar    1  UNL1       -0.0001
     15 C          -4.3346   -1.2982   -0.1725 C.ar    1  UNL1        0.0394
     16 C          -5.1550   -2.1033    0.5943 C.ar    1  UNL1        0.0425
     17 N          -6.4764   -2.1703    0.1931 N.ar    1  UNL1       -0.2551
     18 C          -6.6375   -1.4272   -0.8797 C.ar    1  UNL1        0.0652
     19 S          -5.2434   -0.6103   -1.4557 S.2     1  UNL1       -0.0754
     20 C          -2.4195   -0.0289    0.8659 C.ar    1  UNL1       -0.0089
     21 C          -3.2811    0.7139    1.7136 C.ar    1  UNL1       -0.0534
     22 C          -2.7924    1.5839    2.6833 C.ar    1  UNL1       -0.0611
     23 C          -1.4273    1.7109    2.8466 C.ar    1  UNL1       -0.0611
     24 C          -0.5644    1.0102    2.0012 C.ar    1  UNL1       -0.0534
     25 C          -1.0152    0.1814    0.9425 C.ar    1  UNL1       -0.0075
     26 C          -0.1155   -0.5063    0.0251 C.ar    1  UNL1        0.0164
     27 C           1.2831   -0.2624   -0.2189 C.ar    1  UNL1        0.0018
     28 C           1.9979    1.0333    0.0123 C.ar    1  UNL1       -0.0128
     29 C           1.5073    2.2837    0.1067 C.2     1  UNL1       -0.0719
     30 H           2.5739    3.7653    1.2518 H       1  UNL1        0.0350
     31 H           2.5942    4.0300   -0.5178 H       1  UNL1        0.0350
     32 H           4.8483    2.7932    0.1160 H       1  UNL1        0.0581
     33 H           6.3668    0.6307   -0.1890 H       1  UNL1        0.0629
     34 H           7.0091   -1.7746   -1.0499 H       1  UNL1        0.0694
     35 H           1.9481   -3.1264   -1.9277 H       1  UNL1        0.0836
     36 H          -2.3893   -2.5936   -1.3832 H       1  UNL1        0.0645
     37 H          -4.8390   -2.6645    1.4659 H       1  UNL1        0.0841
     38 H          -7.5939   -1.3309   -1.3770 H       1  UNL1        0.0907
     39 H          -4.3621    0.6023    1.6454 H       1  UNL1        0.0624
     40 H          -3.4783    2.1265    3.3281 H       1  UNL1        0.0618
     41 H          -1.0242    2.3442    3.6324 H       1  UNL1        0.0618
     42 H           0.4992    1.0978    2.2130 H       1  UNL1        0.0624
     43 H           0.4690    2.5755    0.0558 H       1  UNL1        0.0581
@<TRIPOS>BOND
     1     1     2    1
     2     2     3    2
     3     3     4   ar
     4     4     5   ar
     5     5     6   ar
     6     6     7   ar
     7     7     8   ar
     8     8     9   ar
     9     9    10   ar
    10    10    11   ar
    11    11    12   ar
    12    12    13   ar
    13    13    14   ar
    14    14    15    1
    15    15    16   ar
    16    16    17   ar
    17    17    18   ar
    18    18    19   ar
    19    14    20   ar
    20    20    21   ar
    21    21    22   ar
    22    22    23   ar
    23    23    24   ar
    24    24    25   ar
    25    25    26   ar
    26    26    27   ar
    27    27    28   ar
    28    28    29    2
    29    29     1    1
    30    28     3   ar
    31     8     4   ar
    32    27     9   ar
    33    26    12   ar
    34    19    15   ar
    35    25    20   ar
    36     1    30    1
    37     1    31    1
    38     2    32    1
    39     5    33    1
    40     6    34    1
    41    10    35    1
    42    13    36    1
    43    16    37    1
    44    18    38    1
    45    21    39    1
    46    22    40    1
    47    23    41    1
    48    24    42    1
    49    29    43    1
