@<TRIPOS>MOLECULE
*****
 46 53 0 0 0
SMALL
GASTEIGER

@<TRIPOS>ATOM
      1 C          -4.1952   -2.6425    0.8108 C.3     1  UNL1       -0.0148
      2 C          -5.1206   -1.4751    0.6672 C.2     1  UNL1       -0.0719
      3 C          -4.4314   -0.4180    0.2156 C.ar    1  UNL1       -0.0129
      4 C          -4.9002    0.8385   -0.2597 C.ar    1  UNL1       -0.0013
      5 C          -6.2091    1.3877   -0.2078 C.ar    1  UNL1       -0.0463
      6 C          -6.2612    2.6193   -0.8257 C.ar    1  UNL1       -0.0231
      7 S          -4.7417    3.0917   -1.4633 S.2     1  UNL1       -0.0945
      8 C          -3.9944    1.6577   -0.9145 C.ar    1  UNL1        0.0458
      9 C          -2.5582    1.3517   -1.0838 C.ar    1  UNL1        0.0864
     10 N          -1.8421    2.2307   -1.8203 N.ar    1  UNL1       -0.2532
     11 C          -0.5173    1.9981   -1.9295 C.ar    1  UNL1        0.0361
     12 C           0.1855    0.9946   -1.2700 C.ar    1  UNL1        0.0021
     13 C           1.6169    0.9267   -1.4440 C.ar    1  UNL1       -0.0436
     14 C           2.4687    0.0346   -0.7621 C.ar    1  UNL1        0.0005
     15 C           3.9008    0.0054   -0.9099 C.ar    1  UNL1        0.0438
     16 S           4.6837   -0.5149   -2.3635 S.2     1  UNL1       -0.0939
     17 C           6.2821   -0.2455   -1.7260 C.ar    1  UNL1       -0.0145
     18 C           6.1447    0.2308   -0.4718 C.ar    1  UNL1        0.0073
     19 C           6.9093    0.6763    0.6343 C.ar    1  UNL1       -0.0361
     20 C           5.9964    1.0494    1.6452 C.ar    1  UNL1        0.0028
     21 N           4.6759    0.8650    1.2394 N.ar    1  UNL1       -0.3598
     22 C           4.8508    0.3733   -0.0230 C.ar    1  UNL1        0.0614
     23 C           1.7500   -0.7460    0.1406 C.ar    1  UNL1        0.0083
     24 C           2.2672   -1.6543    1.0338 C.ar    1  UNL1        0.0100
     25 N           1.2220   -2.1094    1.7994 N.ar    1  UNL1       -0.3659
     26 C           0.0519   -1.4969    1.4075 C.ar    1  UNL1        0.0100
     27 C           0.3230   -0.7145    0.3089 C.ar    1  UNL1        0.0084
     28 C          -0.5864    0.1105   -0.4329 C.ar    1  UNL1        0.0025
     29 C          -2.0132    0.2125   -0.4454 C.ar    1  UNL1        0.0172
     30 C          -3.0057   -0.7587    0.0881 C.ar    1  UNL1       -0.0114
     31 C          -2.8843   -2.0723    0.3514 C.2     1  UNL1       -0.0719
     32 H          -4.5075   -3.4695    0.1661 H       1  UNL1        0.0350
     33 H          -4.1384   -2.9841    1.8482 H       1  UNL1        0.0350
     34 H          -6.1889   -1.5269    0.8095 H       1  UNL1        0.0581
     35 H          -7.0705    0.9162    0.2476 H       1  UNL1        0.0629
     36 H          -7.1184    3.2680   -0.9407 H       1  UNL1        0.0694
     37 H          -0.0056    2.7111   -2.5735 H       1  UNL1        0.0836
     38 H           2.0867    1.6332   -2.1326 H       1  UNL1        0.0630
     39 H           7.1665   -0.4473   -2.3122 H       1  UNL1        0.0700
     40 H           7.9868    0.7335    0.7134 H       1  UNL1        0.0639
     41 H           6.1886    1.4406    2.6360 H       1  UNL1        0.0807
     42 H           3.7998    1.0330    1.7207 H       1  UNL1        0.1654
     43 H           3.2761   -1.9993    1.2204 H       1  UNL1        0.0813
     44 H           1.3064   -2.7615    2.5691 H       1  UNL1        0.1648
     45 H          -0.8503   -1.6777    1.9730 H       1  UNL1        0.0813
     46 H          -1.9995   -2.6759    0.2241 H       1  UNL1        0.0581
@<TRIPOS>BOND
     1     1     2    1
     2     2     3    2
     3     3     4   ar
     4     4     5   ar
     5     5     6   ar
     6     6     7   ar
     7     7     8   ar
     8     8     9   ar
     9     9    10   ar
    10    10    11   ar
    11    11    12   ar
    12    12    13   ar
    13    13    14   ar
    14    14    15    1
    15    15    16   ar
    16    16    17   ar
    17    17    18   ar
    18    18    19   ar
    19    19    20   ar
    20    20    21   ar
    21    21    22   ar
    22    14    23   ar
    23    23    24   ar
    24    24    25   ar
    25    25    26   ar
    26    26    27   ar
    27    27    28   ar
    28    28    29   ar
    29    29    30   ar
    30    30    31    2
    31    31     1    1
    32    30     3   ar
    33     8     4   ar
    34    29     9   ar
    35    28    12   ar
    36    22    15   ar
    37    27    23   ar
    38    22    18   ar
    39     1    32    1
    40     1    33    1
    41     2    34    1
    42     5    35    1
    43     6    36    1
    44    11    37    1
    45    13    38    1
    46    17    39    1
    47    19    40    1
    48    20    41    1
    49    21    42    1
    50    24    43    1
    51    25    44    1
    52    26    45    1
    53    31    46    1
