@<TRIPOS>MOLECULE
*****
 44 50 0 0 0
SMALL
GASTEIGER

@<TRIPOS>ATOM
      1 C          -6.2048    0.2490   -1.7475 C.3     1  UNL1       -0.0148
      2 C          -6.5261    0.1889   -0.2838 C.2     1  UNL1       -0.0725
      3 C          -5.3852    0.1219    0.4161 C.ar    1  UNL1       -0.0211
      4 C          -5.2237    0.1177    1.8604 C.ar    1  UNL1       -0.0524
      5 C          -3.9816    0.1212    2.3882 C.ar    1  UNL1       -0.0372
      6 C          -2.8958    0.0937    1.4663 C.ar    1  UNL1        0.0481
      7 N          -1.5938    0.1114    1.8836 N.ar    1  UNL1       -0.3536
      8 C          -0.7447    0.0309    0.7914 C.ar    1  UNL1        0.0575
      9 C          -1.5963   -0.0491   -0.3168 C.ar    1  UNL1        0.0193
     10 C          -0.9501   -0.2209   -1.5785 C.ar    1  UNL1        0.0302
     11 C          -1.4206   -0.4316   -2.8365 C.ar    1  UNL1        0.1001
     12 O          -0.3465   -0.5429   -3.6835 O.2     1  UNL1       -0.4698
     13 C           0.7874   -0.4218   -2.9253 C.ar    1  UNL1        0.1000
     14 C           0.4592   -0.2381   -1.6018 C.ar    1  UNL1        0.0284
     15 C           1.3624   -0.1193   -0.5258 C.ar    1  UNL1       -0.0016
     16 C           2.7721   -0.1359   -0.5713 C.ar    1  UNL1       -0.0257
     17 C           3.4917   -0.0220    0.6183 C.ar    1  UNL1        0.0897
     18 N           2.8609    0.1026    1.8228 N.ar    1  UNL1       -0.2528
     19 C           1.5040    0.1154    1.8437 C.ar    1  UNL1        0.0380
     20 C           0.6923    0.0106    0.7131 C.ar    1  UNL1        0.0249
     21 C           4.9760   -0.0318    0.6415 C.ar    1  UNL1        0.0891
     22 C           5.7025    0.0835    1.8292 C.ar    1  UNL1       -0.0342
     23 C           7.0957    0.0681    1.7901 C.ar    1  UNL1       -0.0583
     24 C           7.7393   -0.0619    0.5681 C.ar    1  UNL1       -0.0436
     25 C           6.9592   -0.1715   -0.5684 C.ar    1  UNL1        0.0283
     26 N           5.6074   -0.1596   -0.5602 N.ar    1  UNL1       -0.2534
     27 C          -2.9350    0.0501    0.0737 C.ar    1  UNL1        0.0155
     28 C          -4.2356    0.1027   -0.5101 C.ar    1  UNL1       -0.0120
     29 C          -4.7011    0.2104   -1.7605 C.2     1  UNL1       -0.0719
     30 H          -6.6253   -0.6084   -2.2811 H       1  UNL1        0.0350
     31 H          -6.5756    1.1775   -2.1917 H       1  UNL1        0.0350
     32 H          -7.5238    0.2307    0.1245 H       1  UNL1        0.0581
     33 H          -6.1052    0.1340    2.4908 H       1  UNL1        0.0624
     34 H          -3.8234    0.1322    3.4607 H       1  UNL1        0.0638
     35 H          -1.2934    0.1581    2.8464 H       1  UNL1        0.1659
     36 H          -2.3779   -0.5523   -3.3116 H       1  UNL1        0.1036
     37 H           1.7147   -0.5042   -3.4745 H       1  UNL1        0.1036
     38 H           3.2950   -0.2375   -1.5166 H       1  UNL1        0.0646
     39 H           1.0849    0.2195    2.8396 H       1  UNL1        0.0836
     40 H           5.1896    0.1850    2.7813 H       1  UNL1        0.0639
     41 H           7.6683    0.1572    2.7087 H       1  UNL1        0.0619
     42 H           8.8212   -0.0775    0.5024 H       1  UNL1        0.0633
     43 H           7.4139   -0.2754   -1.5496 H       1  UNL1        0.0830
     44 H          -4.1322    0.2978   -2.6657 H       1  UNL1        0.0581
@<TRIPOS>BOND
     1     1     2    1
     2     2     3    2
     3     3     4   ar
     4     4     5   ar
     5     5     6   ar
     6     6     7   ar
     7     7     8   ar
     8     8     9   ar
     9     9    10   ar
    10    10    11   ar
    11    11    12   ar
    12    12    13   ar
    13    13    14   ar
    14    14    15   ar
    15    15    16   ar
    16    16    17   ar
    17    17    18   ar
    18    18    19   ar
    19    19    20   ar
    20    17    21    1
    21    21    22   ar
    22    22    23   ar
    23    23    24   ar
    24    24    25   ar
    25    25    26   ar
    26     9    27   ar
    27    27    28   ar
    28    28    29    2
    29    29     1    1
    30    28     3   ar
    31    27     6   ar
    32    20     8   ar
    33    26    21   ar
    34    14    10   ar
    35    20    15   ar
    36     1    30    1
    37     1    31    1
    38     2    32    1
    39     4    33    1
    40     5    34    1
    41     7    35    1
    42    11    36    1
    43    13    37    1
    44    16    38    1
    45    19    39    1
    46    22    40    1
    47    23    41    1
    48    24    42    1
    49    25    43    1
    50    29    44    1
