@<TRIPOS>MOLECULE
*****
 44 50 0 0 0
SMALL
GASTEIGER

@<TRIPOS>ATOM
      1 C          -6.6086   -1.7542   -0.0997 C.3     1  UNL1       -0.0148
      2 C          -6.9038   -0.2782   -0.0948 C.2     1  UNL1       -0.0725
      3 C          -5.7506    0.4052   -0.1030 C.ar    1  UNL1       -0.0211
      4 C          -5.5402    1.8467   -0.1022 C.ar    1  UNL1       -0.0524
      5 C          -4.2802    2.3386   -0.1117 C.ar    1  UNL1       -0.0372
      6 C          -3.2242    1.3830   -0.1220 C.ar    1  UNL1        0.0481
      7 N          -1.9027    1.7193   -0.1324 N.ar    1  UNL1       -0.3539
      8 C          -1.1382    0.5699   -0.1405 C.ar    1  UNL1        0.0516
      9 C           0.2432    0.3952   -0.1522 C.ar    1  UNL1       -0.0120
     10 C           1.3763    1.3812   -0.1601 C.3     1  UNL1        0.0012
     11 C           2.5966    0.4609   -0.1714 C.2     1  UNL1       -0.0284
     12 C           2.2134   -0.8334   -0.1703 C.2     1  UNL1       -0.0497
     13 C           0.7596   -0.9043   -0.1585 C.ar    1  UNL1       -0.0193
     14 C          -0.0578   -2.0184   -0.1536 C.ar    1  UNL1       -0.0536
     15 C          -1.4496   -1.8395   -0.1419 C.ar    1  UNL1       -0.0514
     16 C          -2.0076   -0.5361   -0.1352 C.ar    1  UNL1        0.0083
     17 C          -3.3179    0.0000   -0.1236 C.ar    1  UNL1        0.0148
     18 C          -4.6298   -0.5468   -0.1138 C.ar    1  UNL1       -0.0121
     19 C          -5.1050   -1.7976   -0.1120 C.2     1  UNL1       -0.0719
     20 C           3.9764    0.8394   -0.1819 C.ar    1  UNL1        0.0197
     21 S           4.3953    2.5415   -0.1931 S.2     1  UNL1       -0.0961
     22 C           6.0908    2.2492   -0.2019 C.ar    1  UNL1       -0.0163
     23 C           6.3134    0.9096   -0.1962 C.ar    1  UNL1       -0.0142
     24 C           7.4609    0.0797   -0.1982 C.2     1  UNL1       -0.0574
     25 C           7.0713   -1.2143   -0.1889 C.2     1  UNL1       -0.0791
     26 C           5.5447   -1.3334   -0.1797 C.3     1  UNL1       -0.0075
     27 C           5.1458    0.1080   -0.1852 C.ar    1  UNL1       -0.0220
     28 H          -7.0223   -2.2338   -0.9918 H       1  UNL1        0.0350
     29 H          -7.0077   -2.2369    0.7973 H       1  UNL1        0.0350
     30 H          -7.8958    0.1457   -0.0859 H       1  UNL1        0.0581
     31 H          -6.4021    2.5036   -0.0941 H       1  UNL1        0.0624
     32 H          -4.0864    3.4051   -0.1115 H       1  UNL1        0.0638
     33 H          -1.5302    2.6578   -0.1339 H       1  UNL1        0.1659
     34 H           1.3373    2.0029   -1.0601 H       1  UNL1        0.0363
     35 H           1.3522    2.0005    0.7420 H       1  UNL1        0.0363
     36 H           2.8286   -1.7167   -0.1770 H       1  UNL1        0.0627
     37 H           0.3609   -3.0194   -0.1587 H       1  UNL1        0.0624
     38 H          -2.1001   -2.7084   -0.1380 H       1  UNL1        0.0624
     39 H          -4.5223   -2.7036   -0.1184 H       1  UNL1        0.0581
     40 H           6.7988    3.0653   -0.2103 H       1  UNL1        0.0699
     41 H           8.4816    0.4348   -0.2059 H       1  UNL1        0.0621
     42 H           7.7353   -2.0656   -0.1880 H       1  UNL1        0.0575
     43 H           5.2055   -1.8464    0.7246 H       1  UNL1        0.0356
     44 H           5.1957   -1.8560   -1.0746 H       1  UNL1        0.0356
@<TRIPOS>BOND
     1     1     2    1
     2     2     3    2
     3     3     4   ar
     4     4     5   ar
     5     5     6   ar
     6     6     7   ar
     7     7     8   ar
     8     8     9   ar
     9     9    10    1
    10    10    11    1
    11    11    12    2
    12    12    13    1
    13    13    14   ar
    14    14    15   ar
    15    15    16   ar
    16    16    17   ar
    17    17    18   ar
    18    18    19    2
    19    11    20    1
    20    20    21   ar
    21    21    22   ar
    22    22    23   ar
    23    23    24    1
    24    24    25    2
    25    25    26    1
    26    26    27    1
    27    19     1    1
    28    27    20   ar
    29    18     3   ar
    30    27    23   ar
    31    17     6   ar
    32    16     8   ar
    33    13     9   ar
    34     1    28    1
    35     1    29    1
    36     2    30    1
    37     4    31    1
    38     5    32    1
    39     7    33    1
    40    10    34    1
    41    10    35    1
    42    12    36    1
    43    14    37    1
    44    15    38    1
    45    19    39    1
    46    22    40    1
    47    24    41    1
    48    25    42    1
    49    26    43    1
    50    26    44    1
