@<TRIPOS>MOLECULE
*****
 43 49 0 0 0
SMALL
GASTEIGER

@<TRIPOS>ATOM
      1 C          -6.1397   -2.1991   -0.2544 C.3     1  UNL1       -0.0148
      2 C          -6.7655   -0.8304   -0.3255 C.2     1  UNL1       -0.0725
      3 C          -5.8054    0.1019   -0.2480 C.ar    1  UNL1       -0.0210
      4 C          -5.9255    1.5566   -0.2744 C.ar    1  UNL1       -0.0524
      5 C          -4.8164    2.3286   -0.1819 C.ar    1  UNL1       -0.0371
      6 C          -3.5708    1.6454   -0.0614 C.ar    1  UNL1        0.0496
      7 N          -2.3662    2.2852    0.0408 N.ar    1  UNL1       -0.3512
      8 C          -1.4014    1.3104    0.1389 C.ar    1  UNL1        0.0916
      9 C          -0.0134    1.1250    0.2667 C.ar    1  UNL1        0.1123
     10 N           0.9389    2.0738    0.3425 N.ar    1  UNL1       -0.2508
     11 C           2.1892    1.5583    0.4612 C.ar    1  UNL1        0.0362
     12 C           2.5376    0.1996    0.5003 C.ar    1  UNL1        0.0029
     13 C           1.5011   -0.7460    0.4251 C.ar    1  UNL1       -0.0270
     14 C           0.2021   -0.2488    0.3024 C.ar    1  UNL1        0.0681
     15 N          -1.0175   -0.8829    0.1974 N.ar    1  UNL1       -0.3512
     16 C          -1.9917    0.0775    0.0989 C.ar    1  UNL1        0.0753
     17 C          -3.3757    0.2719   -0.0289 C.ar    1  UNL1        0.0311
     18 C          -4.5038   -0.5686   -0.1225 C.ar    1  UNL1       -0.0107
     19 C          -4.6710   -1.8950   -0.1239 C.2     1  UNL1       -0.0718
     20 C           3.9229   -0.2250    0.6316 C.ar    1  UNL1       -0.0057
     21 C           4.4322   -1.0205    1.6957 C.ar    1  UNL1       -0.0533
     22 C           5.8080   -1.4348    1.8240 C.ar    1  UNL1       -0.0605
     23 C           6.8277   -1.1067    0.9018 C.ar    1  UNL1       -0.0510
     24 C           6.3088   -0.3400   -0.1314 C.ar    1  UNL1        0.0204
     25 C           6.9903    0.1506   -1.2122 C.ar    1  UNL1        0.0994
     26 O           6.1274    0.8415   -2.0186 O.2     1  UNL1       -0.4698
     27 C           4.8871    0.7866   -1.4411 C.ar    1  UNL1        0.1000
     28 C           4.9513    0.0787   -0.2672 C.ar    1  UNL1        0.0276
     29 H          -6.3424   -2.7702   -1.1653 H       1  UNL1        0.0350
     30 H          -6.5045   -2.7518    0.6164 H       1  UNL1        0.0350
     31 H          -7.8241   -0.6474   -0.4239 H       1  UNL1        0.0581
     32 H          -6.9106    1.9984   -0.3687 H       1  UNL1        0.0624
     33 H          -4.8718    3.4110   -0.1986 H       1  UNL1        0.0638
     34 H          -2.1588    3.2763    0.0486 H       1  UNL1        0.1660
     35 H           2.9636    2.3206    0.5374 H       1  UNL1        0.0836
     36 H           1.6988   -1.8125    0.4476 H       1  UNL1        0.0645
     37 H          -1.2053   -1.8763    0.1893 H       1  UNL1        0.1660
     38 H          -3.8947   -2.6379   -0.0459 H       1  UNL1        0.0581
     39 H           3.7435   -1.3353    2.4825 H       1  UNL1        0.0624
     40 H           6.0747   -2.0400    2.6920 H       1  UNL1        0.0618
     41 H           7.8552   -1.4242    1.0058 H       1  UNL1        0.0625
     42 H           8.0143    0.1076   -1.5551 H       1  UNL1        0.1035
     43 H           4.1013    1.2878   -1.9893 H       1  UNL1        0.1036
@<TRIPOS>BOND
     1     1     2    1
     2     2     3    2
     3     3     4   ar
     4     4     5   ar
     5     5     6   ar
     6     6     7   ar
     7     7     8   ar
     8     8     9   ar
     9     9    10   ar
    10    10    11   ar
    11    11    12   ar
    12    12    13   ar
    13    13    14   ar
    14    14    15   ar
    15    15    16   ar
    16    16    17   ar
    17    17    18   ar
    18    18    19    2
    19    12    20    1
    20    20    21   ar
    21    21    22   ar
    22    22    23   ar
    23    23    24   ar
    24    24    25   ar
    25    25    26   ar
    26    26    27   ar
    27    27    28   ar
    28    19     1    1
    29    28    20   ar
    30    18     3   ar
    31    28    24   ar
    32    17     6   ar
    33    16     8   ar
    34    14     9   ar
    35     1    29    1
    36     1    30    1
    37     2    31    1
    38     4    32    1
    39     5    33    1
    40     7    34    1
    41    11    35    1
    42    13    36    1
    43    15    37    1
    44    19    38    1
    45    21    39    1
    46    22    40    1
    47    23    41    1
    48    25    42    1
    49    27    43    1
