@<TRIPOS>MOLECULE
*****
 43 49 0 0 0
SMALL
GASTEIGER

@<TRIPOS>ATOM
      1 SI          0.7824    1.6075   -3.2468 Si      1  UNL1        0.0000
      2 C           1.8607    0.7625   -1.9888 C.2     1  UNL1        0.0000
      3 C           1.1333    0.2467   -0.9744 C.ar    1  UNL1        0.0000
      4 C           1.7035   -0.3035    0.2569 C.ar    1  UNL1        0.0000
      5 C           0.8611   -0.5121    1.2922 C.ar    1  UNL1        0.0000
      6 C          -0.6067   -0.3282    1.1935 C.ar    1  UNL1        0.0000
      7 C          -1.3693   -0.4814    2.3532 C.ar    1  UNL1        0.0000
      8 C          -2.7611   -0.4073    2.3043 C.ar    1  UNL1        0.0000
      9 C          -3.4473   -0.2978    1.0919 C.ar    1  UNL1        0.0000
     10 C          -4.8850   -0.3001    1.1409 C.ar    1  UNL1        0.0000
     11 C          -5.7371   -0.2944    0.0216 C.ar    1  UNL1        0.0000
     12 C          -5.0098   -0.3641   -1.1567 C.ar    1  UNL1        0.0000
     13 C          -5.6371   -0.4954   -2.3718 C.ar    1  UNL1        0.0000
     14 S          -4.4982   -0.7135   -3.6332 S.2     1  UNL1        0.0000
     15 C          -3.1765   -0.6413   -2.5373 C.ar    1  UNL1        0.0000
     16 C          -3.5676   -0.3423   -1.2507 C.ar    1  UNL1        0.0000
     17 C          -2.6772   -0.2153   -0.1259 C.ar    1  UNL1        0.0000
     18 C          -1.2466   -0.0727   -0.0449 C.ar    1  UNL1        0.0000
     19 C          -0.3376    0.4086   -1.1230 C.ar    1  UNL1        0.0000
     20 C          -0.6844    1.1792   -2.1765 C.2     1  UNL1        0.0000
     21 C           3.0907   -0.5958    0.4768 C.ar    1  UNL1        0.0000
     22 S           3.8513   -1.8687   -0.4270 S.2     1  UNL1        0.0000
     23 C           5.3697   -1.6311    0.3303 C.ar    1  UNL1        0.0000
     24 C           5.3137   -0.6218    1.2540 C.ar    1  UNL1        0.0000
     25 N           6.3903   -0.2396    1.9960 N.ar    1  UNL1        0.0000
     26 C           6.0577    0.7813    2.8328 C.ar    1  UNL1        0.0000
     27 C           4.7883    1.3642    2.9295 C.ar    1  UNL1        0.0000
     28 N           3.6987    0.9972    2.2018 N.ar    1  UNL1        0.0000
     29 C           4.0021   -0.0250    1.3467 C.ar    1  UNL1        0.0000
     30 H           0.7573    0.8941   -4.5465 H       1  UNL1        0.0000
     31 H           1.0265    3.0680   -3.3212 H       1  UNL1        0.0000
     32 H           2.9352    0.8070   -2.0679 H       1  UNL1        0.0000
     33 H           1.2364   -0.8805    2.2438 H       1  UNL1        0.0000
     34 H          -0.8874   -0.6445    3.3148 H       1  UNL1        0.0000
     35 H          -3.3085   -0.4945    3.2418 H       1  UNL1        0.0000
     36 H          -5.3709   -0.3246    2.1191 H       1  UNL1        0.0000
     37 H          -6.8154   -0.3117    0.1033 H       1  UNL1        0.0000
     38 H          -6.6958   -0.5158   -2.5911 H       1  UNL1        0.0000
     39 H          -2.1868   -0.8343   -2.9227 H       1  UNL1        0.0000
     40 H          -1.6604    1.5609   -2.4271 H       1  UNL1        0.0000
     41 H           6.2221   -2.2397    0.0661 H       1  UNL1        0.0000
     42 H           6.8708    1.1418    3.4568 H       1  UNL1        0.0000
     43 H           4.6148    2.1780    3.6283 H       1  UNL1        0.0000
@<TRIPOS>BOND
     1     1     2    1
     2     2     3    2
     3     3     4   ar
     4     4     5   ar
     5     5     6   ar
     6     6     7   ar
     7     7     8   ar
     8     8     9   ar
     9     9    10   ar
    10    10    11   ar
    11    11    12   ar
    12    12    13   ar
    13    13    14   ar
    14    14    15   ar
    15    15    16   ar
    16    16    17   ar
    17    17    18   ar
    18    18    19   ar
    19    19    20    2
    20     4    21    1
    21    21    22   ar
    22    22    23   ar
    23    23    24   ar
    24    24    25   ar
    25    25    26   ar
    26    26    27   ar
    27    27    28   ar
    28    28    29   ar
    29    20     1    1
    30    29    21   ar
    31    19     3   ar
    32    29    24   ar
    33    18     6   ar
    34    17     9   ar
    35    16    12   ar
    36     1    30    1
    37     1    31    1
    38     2    32    1
    39     5    33    1
    40     7    34    1
    41     8    35    1
    42    10    36    1
    43    11    37    1
    44    13    38    1
    45    15    39    1
    46    20    40    1
    47    23    41    1
    48    26    42    1
    49    27    43    1
