@<TRIPOS>MOLECULE
*****
 38 43 0 0 0
SMALL
GASTEIGER

@<TRIPOS>ATOM
      1 C          -4.8865   -1.0846   -2.8736 C.3     1  UNL1       -0.0148
      2 C          -5.7940   -0.6810   -1.7387 C.2     1  UNL1       -0.0725
      3 C          -5.0518   -0.2950   -0.6912 C.ar    1  UNL1       -0.0210
      4 C          -5.4780    0.1783    0.6232 C.ar    1  UNL1       -0.0524
      5 C          -4.5543    0.5234    1.5526 C.ar    1  UNL1       -0.0371
      6 C          -3.1860    0.3965    1.1707 C.ar    1  UNL1        0.0512
      7 N          -2.1350    0.7061    1.9983 N.ar    1  UNL1       -0.3499
      8 C          -0.9797    0.4591    1.2912 C.ar    1  UNL1        0.1125
      9 C           0.4165    0.4956    1.3591 C.ar    1  UNL1        0.1328
     10 N           1.2167    0.8715    2.3753 N.ar    1  UNL1       -0.2491
     11 C           2.5367    0.7664    2.0573 C.ar    1  UNL1        0.0363
     12 C           3.0816    0.3303    0.8325 C.ar    1  UNL1        0.0052
     13 C           2.1876   -0.0499   -0.1868 C.ar    1  UNL1       -0.0079
     14 C           0.8350    0.0484    0.1186 C.ar    1  UNL1        0.1565
     15 O          -0.2146   -0.2585   -0.7031 O.2     1  UNL1       -0.4510
     16 C          -1.3197    0.0068    0.0532 C.ar    1  UNL1        0.1636
     17 C          -2.7069   -0.0451   -0.0574 C.ar    1  UNL1        0.0501
     18 C          -3.6327   -0.4134   -1.0508 C.ar    1  UNL1       -0.0091
     19 C          -3.5119   -0.8660   -2.3023 C.2     1  UNL1       -0.0718
     20 C           4.5348    0.2698    0.6241 C.ar    1  UNL1        0.0018
     21 C           5.1632   -0.8798    0.1268 C.ar    1  UNL1       -0.0511
     22 C           6.5452   -0.9057   -0.0544 C.ar    1  UNL1       -0.0430
     23 C           7.2712    0.2270    0.2682 C.ar    1  UNL1        0.0276
     24 N           6.7148    1.3580    0.7475 N.ar    1  UNL1       -0.2627
     25 C           5.3693    1.3528    0.9091 C.ar    1  UNL1        0.0353
     26 H          -5.0522   -0.4523   -3.7509 H       1  UNL1        0.0350
     27 H          -5.0380   -2.1345   -3.1413 H       1  UNL1        0.0350
     28 H          -6.8717   -0.7056   -1.7819 H       1  UNL1        0.0581
     29 H          -6.5391    0.2459    0.8339 H       1  UNL1        0.0624
     30 H          -4.8413    0.8780    2.5361 H       1  UNL1        0.0638
     31 H          -2.1476    1.0520    2.9502 H       1  UNL1        0.1661
     32 H           3.1961    1.0526    2.8768 H       1  UNL1        0.0836
     33 H           2.5152   -0.3884   -1.1622 H       1  UNL1        0.0661
     34 H          -2.5854   -1.0469   -2.8245 H       1  UNL1        0.0581
     35 H           4.5832   -1.7687   -0.1119 H       1  UNL1        0.0625
     36 H           7.0422   -1.7911   -0.4351 H       1  UNL1        0.0633
     37 H           8.3503    0.2558    0.1462 H       1  UNL1        0.0829
     38 H           4.9669    2.2922    1.2817 H       1  UNL1        0.0836
@<TRIPOS>BOND
     1     1     2    1
     2     2     3    2
     3     3     4   ar
     4     4     5   ar
     5     5     6   ar
     6     6     7   ar
     7     7     8   ar
     8     8     9   ar
     9     9    10   ar
    10    10    11   ar
    11    11    12   ar
    12    12    13   ar
    13    13    14   ar
    14    14    15   ar
    15    15    16   ar
    16    16    17   ar
    17    17    18   ar
    18    18    19    2
    19    12    20    1
    20    20    21   ar
    21    21    22   ar
    22    22    23   ar
    23    23    24   ar
    24    24    25   ar
    25    19     1    1
    26    25    20   ar
    27    18     3   ar
    28    17     6   ar
    29    16     8   ar
    30    14     9   ar
    31     1    26    1
    32     1    27    1
    33     2    28    1
    34     4    29    1
    35     5    30    1
    36     7    31    1
    37    11    32    1
    38    13    33    1
    39    19    34    1
    40    21    35    1
    41    22    36    1
    42    23    37    1
    43    25    38    1
