@<TRIPOS>MOLECULE
*****
 47 54 0 0 0
SMALL
GASTEIGER

@<TRIPOS>ATOM
      1 C          -4.2925   -3.9867   -0.6445 C.3     1  UNL1        0.0000
      2 C          -5.3735   -2.9795   -0.8769 C.2     1  UNL1        0.0000
      3 C          -4.8531   -1.7511   -0.7669 C.ar    1  UNL1        0.0000
      4 C          -5.5248   -0.4896   -0.8438 C.ar    1  UNL1        0.0000
      5 C          -4.7997    0.6199   -0.6214 C.ar    1  UNL1        0.0000
      6 C          -3.3378    0.6178   -0.3342 C.ar    1  UNL1        0.0000
      7 C          -2.6379   -0.5796   -0.3251 C.ar    1  UNL1        0.0000
      8 C          -1.2108   -0.4660   -0.1523 C.ar    1  UNL1        0.0000
      9 N          -0.3198   -1.5165   -0.3020 N.ar    1  UNL1        0.0000
     10 C           0.9179   -1.0252   -0.0670 C.ar    1  UNL1        0.0000
     11 C           2.2013   -1.5809   -0.0745 C.2     1  UNL1        0.0000
     12 C           3.0520   -0.5474    0.1914 C.2     1  UNL1        0.0000
     13 C           2.2522    0.7941    0.3861 C.3     1  UNL1        0.0000
     14 C           0.8730    0.3126    0.1847 C.ar    1  UNL1        0.0000
     15 C          -0.4622    0.6863    0.1041 C.ar    1  UNL1        0.0000
     16 C          -1.1377    1.9267    0.1868 C.ar    1  UNL1        0.0000
     17 C          -0.6026    3.1345    0.4428 C.2     1  UNL1        0.0000
     18 SI         -1.9117    4.4514    0.4105 Si      1  UNL1        0.0000
     19 C          -3.1725    3.1252    0.0180 C.2     1  UNL1        0.0000
     20 C          -2.6072    1.8986   -0.0614 C.ar    1  UNL1        0.0000
     21 C           4.4701   -0.7007    0.2720 C.ar    1  UNL1        0.0000
     22 S           5.3024   -2.2355    0.0398 S.2     1  UNL1        0.0000
     23 C           6.8795   -1.5746    0.2901 C.ar    1  UNL1        0.0000
     24 C           6.7320   -0.2626    0.5325 C.ar    1  UNL1        0.0000
     25 O           7.7316    0.6259    0.7821 O.2     1  UNL1        0.0000
     26 C           6.9827    1.7756    0.9465 C.ar    1  UNL1        0.0000
     27 C           5.6023    1.5859    0.8026 C.ar    1  UNL1        0.0000
     28 C           5.4441    0.2134    0.5246 C.ar    1  UNL1        0.0000
     29 C          -3.4197   -1.8183   -0.4894 C.ar    1  UNL1        0.0000
     30 C          -3.0902   -3.1191   -0.3875 C.2     1  UNL1        0.0000
     31 H          -4.1414   -4.6185   -1.5246 H       1  UNL1        0.0000
     32 H          -4.5170   -4.6119    0.2248 H       1  UNL1        0.0000
     33 H          -6.4081   -3.2209   -1.0652 H       1  UNL1        0.0000
     34 H          -6.5864   -0.4471   -1.0549 H       1  UNL1        0.0000
     35 H          -5.3042    1.5780   -0.6704 H       1  UNL1        0.0000
     36 H          -0.5390   -2.4574   -0.5873 H       1  UNL1        0.0000
     37 H           2.4347   -2.6184   -0.2582 H       1  UNL1        0.0000
     38 H           2.4032    1.1904    1.3945 H       1  UNL1        0.0000
     39 H           2.5432    1.5294   -0.3697 H       1  UNL1        0.0000
     40 H           0.4323    3.3603    0.6386 H       1  UNL1        0.0000
     41 H          -1.7338    5.4080   -0.7083 H       1  UNL1        0.0000
     42 H          -2.1375    5.0678    1.7400 H       1  UNL1        0.0000
     43 H          -4.2074    3.3958   -0.1019 H       1  UNL1        0.0000
     44 H           7.7899   -2.1540    0.2488 H       1  UNL1        0.0000
     45 H           7.5742    2.6558    1.1629 H       1  UNL1        0.0000
     46 H           4.8480    2.3535    0.8926 H       1  UNL1        0.0000
     47 H          -2.1380   -3.5457   -0.1296 H       1  UNL1        0.0000
@<TRIPOS>BOND
     1     1     2    1
     2     2     3    2
     3     3     4   ar
     4     4     5   ar
     5     5     6   ar
     6     6     7   ar
     7     7     8   ar
     8     8     9   ar
     9     9    10   ar
    10    10    11    1
    11    11    12    2
    12    12    13    1
    13    13    14    1
    14    14    15   ar
    15    15    16   ar
    16    16    17    2
    17    17    18    1
    18    18    19    1
    19    19    20    2
    20    12    21    1
    21    21    22   ar
    22    22    23   ar
    23    23    24   ar
    24    24    25   ar
    25    25    26   ar
    26    26    27   ar
    27    27    28   ar
    28     7    29   ar
    29    29    30    2
    30    30     1    1
    31    29     3   ar
    32    20     6   ar
    33    28    21   ar
    34    15     8   ar
    35    20    16   ar
    36    28    24   ar
    37    14    10   ar
    38     1    31    1
    39     1    32    1
    40     2    33    1
    41     4    34    1
    42     5    35    1
    43     9    36    1
    44    11    37    1
    45    13    38    1
    46    13    39    1
    47    17    40    1
    48    18    41    1
    49    18    42    1
    50    19    43    1
    51    23    44    1
    52    26    45    1
    53    27    46    1
    54    30    47    1
