@<TRIPOS>MOLECULE
*****
 50 57 0 0 0
SMALL
GASTEIGER

@<TRIPOS>ATOM
      1 C          -5.7687   -2.8443    0.9657 C.3     1  UNL1        0.0000
      2 C          -6.4737   -1.5284    0.9307 C.2     1  UNL1        0.0000
      3 C          -5.5877   -0.5717    0.6278 C.ar    1  UNL1        0.0000
      4 C          -5.8393    0.8138    0.3886 C.ar    1  UNL1        0.0000
      5 C          -4.8076    1.5646   -0.0271 C.ar    1  UNL1        0.0000
      6 C          -3.4202    1.0546   -0.2009 C.ar    1  UNL1        0.0000
      7 C          -3.0938   -0.2493    0.1351 C.ar    1  UNL1        0.0000
      8 C          -1.6552   -0.6271    0.1517 C.ar    1  UNL1        0.0000
      9 SI         -0.9576   -2.2329    1.0298 Si      1  UNL1        0.0000
     10 C           0.7563   -1.6650    0.6407 C.ar    1  UNL1        0.0000
     11 C           2.0913   -2.0162    0.7651 C.ar    1  UNL1        0.0000
     12 C           2.8134   -0.9720    0.1914 C.ar    1  UNL1        0.0000
     13 N           1.8982   -0.0429   -0.2937 N.ar    1  UNL1        0.0000
     14 C           0.6359   -0.4635   -0.0085 C.ar    1  UNL1        0.0000
     15 C          -0.6172    0.1614   -0.2792 C.ar    1  UNL1        0.0000
     16 C          -0.9427    1.4725   -0.8078 C.ar    1  UNL1        0.0000
     17 C          -0.0913    2.3585   -1.3653 C.2     1  UNL1        0.0000
     18 SI         -0.9596    3.9343   -1.8550 Si      1  UNL1        0.0000
     19 C          -2.5392    3.1855   -1.2188 C.2     1  UNL1        0.0000
     20 C          -2.3504    1.9416   -0.7234 C.ar    1  UNL1        0.0000
     21 C           4.2438   -0.8136    0.0268 C.ar    1  UNL1        0.0000
     22 C           5.1139   -1.8327   -0.4326 C.ar    1  UNL1        0.0000
     23 C           6.5343   -1.6621   -0.6133 C.ar    1  UNL1        0.0000
     24 C           7.2344   -0.4614   -0.3482 C.ar    1  UNL1        0.0000
     25 C           6.3608    0.5131    0.1149 C.ar    1  UNL1        0.0000
     26 C           6.6780    1.7896    0.4932 C.ar    1  UNL1        0.0000
     27 O           5.5466    2.4326    0.9170 O.2     1  UNL1        0.0000
     28 C           4.5046    1.5506    0.8095 C.ar    1  UNL1        0.0000
     29 C           4.9529    0.3597    0.2965 C.ar    1  UNL1        0.0000
     30 C          -4.2408   -1.1262    0.4831 C.ar    1  UNL1        0.0000
     31 C          -4.3543   -2.4595    0.6297 C.2     1  UNL1        0.0000
     32 H          -6.1761   -3.5290    0.2160 H       1  UNL1        0.0000
     33 H          -5.8282   -3.3037    1.9566 H       1  UNL1        0.0000
     34 H          -7.5348   -1.3957    1.0729 H       1  UNL1        0.0000
     35 H          -6.8343    1.2226    0.5135 H       1  UNL1        0.0000
     36 H          -4.9896    2.6159   -0.2183 H       1  UNL1        0.0000
     37 H          -1.2874   -2.2475    2.4793 H       1  UNL1        0.0000
     38 H          -1.3330   -3.4721    0.2971 H       1  UNL1        0.0000
     39 H           2.5157   -2.9004    1.2231 H       1  UNL1        0.0000
     40 H           2.1544    0.7955   -0.7909 H       1  UNL1        0.0000
     41 H           0.9618    2.2647   -1.5492 H       1  UNL1        0.0000
     42 H          -0.5125    5.0968   -1.0511 H       1  UNL1        0.0000
     43 H          -0.9726    4.1393   -3.3231 H       1  UNL1        0.0000
     44 H          -3.4594    3.7378   -1.3037 H       1  UNL1        0.0000
     45 H           4.6894   -2.8068   -0.6796 H       1  UNL1        0.0000
     46 H           7.1024   -2.5187   -0.9793 H       1  UNL1        0.0000
     47 H           8.3002   -0.3479   -0.4841 H       1  UNL1        0.0000
     48 H           7.5881    2.3706    0.5374 H       1  UNL1        0.0000
     49 H           3.5482    1.9266    1.1441 H       1  UNL1        0.0000
     50 H          -3.5973   -3.2116    0.5047 H       1  UNL1        0.0000
@<TRIPOS>BOND
     1     1     2    1
     2     2     3    2
     3     3     4   ar
     4     4     5   ar
     5     5     6   ar
     6     6     7   ar
     7     7     8   ar
     8     8     9    1
     9     9    10    1
    10    10    11   ar
    11    11    12   ar
    12    12    13   ar
    13    13    14   ar
    14    14    15    1
    15    15    16   ar
    16    16    17    2
    17    17    18    1
    18    18    19    1
    19    19    20    2
    20    12    21    1
    21    21    22   ar
    22    22    23   ar
    23    23    24   ar
    24    24    25   ar
    25    25    26   ar
    26    26    27   ar
    27    27    28   ar
    28    28    29   ar
    29     7    30   ar
    30    30    31    2
    31    31     1    1
    32    30     3   ar
    33    20     6   ar
    34    29    21   ar
    35    15     8   ar
    36    20    16   ar
    37    29    25   ar
    38    14    10   ar
    39     1    32    1
    40     1    33    1
    41     2    34    1
    42     4    35    1
    43     5    36    1
    44     9    37    1
    45     9    38    1
    46    11    39    1
    47    13    40    1
    48    17    41    1
    49    18    42    1
    50    18    43    1
    51    19    44    1
    52    22    45    1
    53    23    46    1
    54    24    47    1
    55    26    48    1
    56    28    49    1
    57    31    50    1
