@<TRIPOS>MOLECULE
*****
 44 50 0 0 0
SMALL
GASTEIGER

@<TRIPOS>ATOM
      1 C          -3.5540   -3.3429    0.8278 C.3     1  UNL1        0.0000
      2 C          -4.5914   -2.2818    1.0366 C.2     1  UNL1        0.0000
      3 C          -4.0242   -1.0814    0.8645 C.ar    1  UNL1        0.0000
      4 C          -4.6407    0.2097    0.8355 C.ar    1  UNL1        0.0000
      5 C          -3.8776    1.2493    0.4538 C.ar    1  UNL1        0.0000
      6 C          -2.4277    1.1415    0.1239 C.ar    1  UNL1        0.0000
      7 C          -1.7531   -0.0348    0.3610 C.ar    1  UNL1        0.0000
      8 C          -0.2610   -0.0507    0.2542 C.ar    1  UNL1        0.0000
      9 C           0.6066   -0.9247    0.9518 C.ar    1  UNL1        0.0000
     10 C           0.2530   -1.6947    2.0386 C.ar    1  UNL1        0.0000
     11 S           1.5552   -2.6411    2.6306 S.2     1  UNL1        0.0000
     12 C           2.6558   -1.9322    1.5266 C.ar    1  UNL1        0.0000
     13 C           2.0403   -1.0056    0.7146 C.ar    1  UNL1        0.0000
     14 C           2.7261   -0.1960   -0.2032 C.ar    1  UNL1        0.0000
     15 C           1.8897    0.7859   -0.7777 C.ar    1  UNL1        0.0000
     16 C           0.4777    0.8950   -0.5272 C.ar    1  UNL1        0.0000
     17 C          -0.2811    2.0969   -0.9467 C.ar    1  UNL1        0.0000
     18 C           0.2206    3.1514   -1.6253 C.2     1  UNL1        0.0000
     19 SI         -1.0321    4.5209   -1.7919 Si      1  UNL1        0.0000
     20 C          -2.2314    3.4457   -0.8539 C.2     1  UNL1        0.0000
     21 C          -1.6919    2.2537   -0.5133 C.ar    1  UNL1        0.0000
     22 C           4.1502   -0.3054   -0.4739 C.ar    1  UNL1        0.0000
     23 C           4.8460   -1.3573   -1.0389 C.ar    1  UNL1        0.0000
     24 C           6.2435   -1.0955   -1.1388 C.ar    1  UNL1        0.0000
     25 C           6.5693    0.1490   -0.6490 C.ar    1  UNL1        0.0000
     26 S           5.1969    0.9929   -0.0762 S.2     1  UNL1        0.0000
     27 C          -2.5976   -1.2209    0.5956 C.ar    1  UNL1        0.0000
     28 C          -2.3265   -2.5357    0.5117 C.2     1  UNL1        0.0000
     29 H          -3.4108   -3.9435    1.7307 H       1  UNL1        0.0000
     30 H          -3.8212   -3.9930   -0.0105 H       1  UNL1        0.0000
     31 H          -5.6364   -2.4743    1.2229 H       1  UNL1        0.0000
     32 H          -5.6916    0.3225    1.0710 H       1  UNL1        0.0000
     33 H          -4.3357    2.2306    0.4029 H       1  UNL1        0.0000
     34 H          -0.7002   -1.7689    2.5419 H       1  UNL1        0.0000
     35 H           3.6993   -2.2119    1.5731 H       1  UNL1        0.0000
     36 H           2.3651    1.5154   -1.4314 H       1  UNL1        0.0000
     37 H           1.2162    3.2915   -2.0110 H       1  UNL1        0.0000
     38 H          -0.6490    5.7378   -1.0368 H       1  UNL1        0.0000
     39 H          -1.4483    4.7438   -3.1973 H       1  UNL1        0.0000
     40 H          -3.2373    3.7939   -0.6917 H       1  UNL1        0.0000
     41 H           4.3723   -2.2745   -1.3687 H       1  UNL1        0.0000
     42 H           6.9712   -1.7843   -1.5502 H       1  UNL1        0.0000
     43 H           7.5477    0.6071   -0.6000 H       1  UNL1        0.0000
     44 H          -1.3818   -2.9832    0.2444 H       1  UNL1        0.0000
@<TRIPOS>BOND
     1     1     2    1
     2     2     3    2
     3     3     4   ar
     4     4     5   ar
     5     5     6   ar
     6     6     7   ar
     7     7     8   ar
     8     8     9   ar
     9     9    10   ar
    10    10    11   ar
    11    11    12   ar
    12    12    13   ar
    13    13    14   ar
    14    14    15   ar
    15    15    16   ar
    16    16    17   ar
    17    17    18    2
    18    18    19    1
    19    19    20    1
    20    20    21    2
    21    14    22    1
    22    22    23   ar
    23    23    24   ar
    24    24    25   ar
    25    25    26   ar
    26     7    27   ar
    27    27    28    2
    28    28     1    1
    29    27     3   ar
    30    21     6   ar
    31    26    22   ar
    32    16     8   ar
    33    21    17   ar
    34    13     9   ar
    35     1    29    1
    36     1    30    1
    37     2    31    1
    38     4    32    1
    39     5    33    1
    40    10    34    1
    41    12    35    1
    42    15    36    1
    43    18    37    1
    44    19    38    1
    45    19    39    1
    46    20    40    1
    47    23    41    1
    48    24    42    1
    49    25    43    1
    50    28    44    1
