@<TRIPOS>MOLECULE
*****
 49 56 0 0 0
SMALL
GASTEIGER

@<TRIPOS>ATOM
      1 C          -3.3320   -4.0037    1.8991 C.3     1  UNL1        0.0000
      2 C          -4.6782   -3.6408    1.3557 C.2     1  UNL1        0.0000
      3 C          -4.6072   -2.4249    0.8002 C.ar    1  UNL1        0.0000
      4 C          -5.6652   -1.6293    0.2607 C.ar    1  UNL1        0.0000
      5 C          -5.3680   -0.3699   -0.1010 C.ar    1  UNL1        0.0000
      6 C          -4.0016    0.2218   -0.0275 C.ar    1  UNL1        0.0000
      7 C          -2.9226   -0.5618    0.3214 C.ar    1  UNL1        0.0000
      8 C          -1.5118   -0.0250    0.1575 C.ar    1  UNL1        0.0000
      9 C          -0.4182   -0.9127    0.0885 C.ar    1  UNL1        0.0000
     10 C           0.8650   -0.3784   -0.0037 C.ar    1  UNL1        0.0000
     11 O           2.0167   -1.0962   -0.0349 O.2     1  UNL1        0.0000
     12 C           3.0700   -0.2154   -0.1260 C.ar    1  UNL1        0.0000
     13 C           2.5527    1.0720   -0.1522 C.ar    1  UNL1        0.0000
     14 C           1.1392    0.9713   -0.0792 C.ar    1  UNL1        0.0000
     15 C           0.0596    1.8662   -0.0999 C.ar    1  UNL1        0.0000
     16 C          -1.2610    1.3633   -0.0151 C.ar    1  UNL1        0.0000
     17 C          -2.4252    2.2472   -0.2162 C.ar    1  UNL1        0.0000
     18 C          -2.3813    3.5855   -0.3940 C.2     1  UNL1        0.0000
     19 SI         -4.0743    4.2897   -0.7240 Si      1  UNL1        0.0000
     20 C          -4.7459    2.5589   -0.5649 C.2     1  UNL1        0.0000
     21 C          -3.7757    1.6539   -0.3028 C.ar    1  UNL1        0.0000
     22 C           4.4395   -0.6511   -0.1739 C.ar    1  UNL1        0.0000
     23 S           4.8709   -2.2614    0.3169 S.2     1  UNL1        0.0000
     24 C           6.5513   -2.0185    0.0150 C.ar    1  UNL1        0.0000
     25 C           6.7699   -0.7543   -0.4553 C.ar    1  UNL1        0.0000
     26 C           7.9405    0.0522   -0.9021 C.3     1  UNL1        0.0000
     27 C           7.2460    1.3593   -1.2851 C.2     1  UNL1        0.0000
     28 C           5.9112    1.2875   -1.0788 C.2     1  UNL1        0.0000
     29 C           5.5762    0.0060   -0.5630 C.ar    1  UNL1        0.0000
     30 C          -3.2461   -1.8997    0.8697 C.ar    1  UNL1        0.0000
     31 C          -2.5099   -2.7929    1.5567 C.2     1  UNL1        0.0000
     32 H          -2.9350   -4.9008    1.4155 H       1  UNL1        0.0000
     33 H          -3.3733   -4.1550    2.9818 H       1  UNL1        0.0000
     34 H          -5.5652   -4.2459    1.4593 H       1  UNL1        0.0000
     35 H          -6.6695   -2.0275    0.1864 H       1  UNL1        0.0000
     36 H          -6.1664    0.2470   -0.4973 H       1  UNL1        0.0000
     37 H          -0.5324   -1.9874    0.0772 H       1  UNL1        0.0000
     38 H           3.1242    1.9855   -0.2120 H       1  UNL1        0.0000
     39 H           0.2590    2.9249   -0.2163 H       1  UNL1        0.0000
     40 H          -1.5233    4.2360   -0.3918 H       1  UNL1        0.0000
     41 H          -4.2060    4.8289   -2.0988 H       1  UNL1        0.0000
     42 H          -4.5393    5.1850    0.3623 H       1  UNL1        0.0000
     43 H          -5.8072    2.3968   -0.6443 H       1  UNL1        0.0000
     44 H           7.2624   -2.8125    0.1943 H       1  UNL1        0.0000
     45 H           8.4355   -0.3942   -1.7689 H       1  UNL1        0.0000
     46 H           8.6569    0.2144   -0.0920 H       1  UNL1        0.0000
     47 H           7.7700    2.2179   -1.6785 H       1  UNL1        0.0000
     48 H           5.2090    2.0802   -1.2898 H       1  UNL1        0.0000
     49 H          -1.4839   -2.6918    1.8711 H       1  UNL1        0.0000
@<TRIPOS>BOND
     1     1     2    1
     2     2     3    2
     3     3     4   ar
     4     4     5   ar
     5     5     6   ar
     6     6     7   ar
     7     7     8   ar
     8     8     9   ar
     9     9    10   ar
    10    10    11   ar
    11    11    12   ar
    12    12    13   ar
    13    13    14   ar
    14    14    15   ar
    15    15    16   ar
    16    16    17   ar
    17    17    18    2
    18    18    19    1
    19    19    20    1
    20    20    21    2
    21    12    22    1
    22    22    23   ar
    23    23    24   ar
    24    24    25   ar
    25    25    26    1
    26    26    27    1
    27    27    28    2
    28    28    29    1
    29     7    30   ar
    30    30    31    2
    31    31     1    1
    32    30     3   ar
    33    21     6   ar
    34    29    22   ar
    35    16     8   ar
    36    21    17   ar
    37    29    25   ar
    38    14    10   ar
    39     1    32    1
    40     1    33    1
    41     2    34    1
    42     4    35    1
    43     5    36    1
    44     9    37    1
    45    13    38    1
    46    15    39    1
    47    18    40    1
    48    19    41    1
    49    19    42    1
    50    20    43    1
    51    24    44    1
    52    26    45    1
    53    26    46    1
    54    27    47    1
    55    28    48    1
    56    31    49    1
