@<TRIPOS>MOLECULE
*****
 47 54 0 0 0
SMALL
GASTEIGER

@<TRIPOS>ATOM
      1 C          -2.9301    4.1601   -1.1386 C.3     1  UNL1       -0.0148
      2 C          -4.2954    3.5929   -1.3685 C.2     1  UNL1       -0.0725
      3 C          -4.2675    2.2791   -1.1127 C.ar    1  UNL1       -0.0212
      4 C          -5.3600    1.3555   -1.0856 C.ar    1  UNL1       -0.0537
      5 C          -5.1051    0.1095   -0.6525 C.ar    1  UNL1       -0.0529
      6 C          -3.7539   -0.3715   -0.2626 C.ar    1  UNL1       -0.0093
      7 C          -2.6425    0.4320   -0.4178 C.ar    1  UNL1       -0.0021
      8 C          -1.2501   -0.1543   -0.2138 C.ar    1  UNL1       -0.0079
      9 C          -0.1084    0.4849   -0.7298 C.ar    1  UNL1       -0.0391
     10 C           1.1824   -0.0329   -0.4879 C.ar    1  UNL1        0.0205
     11 S           2.6799    0.6383   -0.9987 S.2     1  UNL1       -0.0876
     12 C           3.6021   -0.5993   -0.2584 C.ar    1  UNL1        0.0306
     13 C           2.7694   -1.5237    0.3444 C.ar    1  UNL1       -0.0386
     14 C           1.3740   -1.2111    0.2227 C.ar    1  UNL1       -0.0096
     15 C           0.2299   -1.9099    0.6652 C.ar    1  UNL1       -0.0452
     16 C          -1.0605   -1.4020    0.4218 C.ar    1  UNL1       -0.0092
     17 C          -2.2566   -2.1919    0.7176 C.ar    1  UNL1       -0.0135
     18 C          -2.3825   -3.4043    1.2830 C.2     1  UNL1       -0.0719
     19 C          -3.8251   -3.8068    1.2886 C.3     1  UNL1       -0.0148
     20 C          -4.4857   -2.6279    0.6397 C.2     1  UNL1       -0.0719
     21 C          -3.5649   -1.7020    0.3162 C.ar    1  UNL1       -0.0135
     22 C           5.0386   -0.6354   -0.3199 C.ar    1  UNL1        0.0687
     23 S           5.9716   -2.1056   -0.2196 S.2     1  UNL1       -0.0918
     24 C           7.4980   -1.2902   -0.3801 C.ar    1  UNL1       -0.0128
     25 C           7.2435    0.0295   -0.4893 C.ar    1  UNL1        0.0278
     26 C           7.9287    1.2452   -0.6309 C.ar    1  UNL1       -0.0156
     27 C           6.9250    2.2206   -0.6628 C.ar    1  UNL1        0.0932
     28 O           5.6421    1.7188   -0.5513 O.2     1  UNL1       -0.4618
     29 C           5.9156    0.3857   -0.4563 C.ar    1  UNL1        0.1500
     30 C          -2.9181    1.8486   -0.7499 C.ar    1  UNL1       -0.0135
     31 C          -2.1462    2.9505   -0.7122 C.2     1  UNL1       -0.0719
     32 H          -2.9467    4.9145   -0.3465 H       1  UNL1        0.0350
     33 H          -2.5192    4.5949   -2.0543 H       1  UNL1        0.0350
     34 H          -5.1642    4.1740   -1.6353 H       1  UNL1        0.0581
     35 H          -6.3557    1.6739   -1.3680 H       1  UNL1        0.0624
     36 H          -5.9251   -0.5989   -0.6038 H       1  UNL1        0.0624
     37 H          -0.1906    1.3690   -1.3502 H       1  UNL1        0.0635
     38 H           3.1331   -2.4027    0.8629 H       1  UNL1        0.0635
     39 H           0.3652   -2.8616    1.1698 H       1  UNL1        0.0630
     40 H          -1.5895   -4.0289    1.6622 H       1  UNL1        0.0581
     41 H          -3.9840   -4.7186    0.7055 H       1  UNL1        0.0350
     42 H          -4.1906   -3.9521    2.3093 H       1  UNL1        0.0350
     43 H          -5.5523   -2.5564    0.4989 H       1  UNL1        0.0581
     44 H           8.4328   -1.8323   -0.3757 H       1  UNL1        0.0701
     45 H           8.9919    1.4242   -0.6993 H       1  UNL1        0.0655
     46 H           6.9650    3.2981   -0.7571 H       1  UNL1        0.1030
     47 H          -1.1184    3.0206   -0.3966 H       1  UNL1        0.0581
@<TRIPOS>BOND
     1     1     2    1
     2     2     3    2
     3     3     4   ar
     4     4     5   ar
     5     5     6   ar
     6     6     7   ar
     7     7     8   ar
     8     8     9   ar
     9     9    10   ar
    10    10    11   ar
    11    11    12   ar
    12    12    13   ar
    13    13    14   ar
    14    14    15   ar
    15    15    16   ar
    16    16    17   ar
    17    17    18    2
    18    18    19    1
    19    19    20    1
    20    20    21    2
    21    12    22    1
    22    22    23   ar
    23    23    24   ar
    24    24    25   ar
    25    25    26   ar
    26    26    27   ar
    27    27    28   ar
    28    28    29   ar
    29     7    30   ar
    30    30    31    2
    31    31     1    1
    32    30     3   ar
    33    21     6   ar
    34    29    22   ar
    35    16     8   ar
    36    21    17   ar
    37    29    25   ar
    38    14    10   ar
    39     1    32    1
    40     1    33    1
    41     2    34    1
    42     4    35    1
    43     5    36    1
    44     9    37    1
    45    13    38    1
    46    15    39    1
    47    18    40    1
    48    19    41    1
    49    19    42    1
    50    20    43    1
    51    24    44    1
    52    26    45    1
    53    27    46    1
    54    31    47    1
