@<TRIPOS>MOLECULE
*****
 47 54 0 0 0
SMALL
GASTEIGER

@<TRIPOS>ATOM
      1 C          -4.9178   -2.6628   -2.4672 C.3     1  UNL1       -0.0148
      2 C          -5.9405   -2.0350   -1.5737 C.2     1  UNL1       -0.0725
      3 C          -5.3203   -1.2262   -0.7059 C.ar    1  UNL1       -0.0212
      4 C          -5.9008   -0.3389    0.2547 C.ar    1  UNL1       -0.0537
      5 C          -5.0708    0.4853    0.9160 C.ar    1  UNL1       -0.0529
      6 C          -3.5933    0.4843    0.7480 C.ar    1  UNL1       -0.0092
      7 C          -2.9756   -0.4533   -0.0502 C.ar    1  UNL1       -0.0007
      8 C          -1.4647   -0.5662   -0.0353 C.ar    1  UNL1        0.0102
      9 C          -0.8149   -1.7082   -0.4868 C.ar    1  UNL1        0.0366
     10 N           0.5163   -1.9042   -0.5718 N.ar    1  UNL1       -0.2538
     11 C           1.2909   -0.8823   -0.1330 C.ar    1  UNL1        0.0792
     12 C           2.7147   -0.9012   -0.1733 C.ar    1  UNL1       -0.0203
     13 C           3.2901    0.2290    0.3651 C.ar    1  UNL1        0.0307
     14 S           2.0782    1.3049    0.9083 S.2     1  UNL1       -0.0854
     15 C           0.7712    0.2860    0.4315 C.ar    1  UNL1        0.0464
     16 C          -0.6348    0.4359    0.5235 C.ar    1  UNL1        0.0074
     17 C          -1.2990    1.5244    1.2546 C.ar    1  UNL1       -0.0123
     18 C          -0.8316    2.6015    1.9105 C.2     1  UNL1       -0.0719
     19 C          -1.9568    3.3524    2.5507 C.3     1  UNL1       -0.0148
     20 C          -3.1430    2.5358    2.1534 C.2     1  UNL1       -0.0719
     21 C          -2.7538    1.4871    1.4062 C.ar    1  UNL1       -0.0134
     22 C           4.7054    0.5217    0.4707 C.ar    1  UNL1        0.0534
     23 S           5.3457    1.4840    1.7619 S.2     1  UNL1       -0.0918
     24 C           6.9581    1.3400    1.2072 C.ar    1  UNL1        0.0038
     25 C           7.0259    0.5784    0.0717 C.ar    1  UNL1        0.0968
     26 N           8.1994    0.3146   -0.5671 N.ar    1  UNL1       -0.2514
     27 C           7.9858   -0.4582   -1.6663 C.ar    1  UNL1        0.0464
     28 C           6.7370   -0.9247   -2.0918 C.ar    1  UNL1        0.0464
     29 N           5.5529   -0.6755   -1.4696 N.ar    1  UNL1       -0.2508
     30 C           5.7311    0.1001   -0.3575 C.ar    1  UNL1        0.1044
     31 C          -3.8719   -1.2726   -0.8963 C.ar    1  UNL1       -0.0134
     32 C          -3.6342   -2.0692   -1.9548 C.2     1  UNL1       -0.0719
     33 H          -4.9164   -3.7522   -2.3684 H       1  UNL1        0.0350
     34 H          -5.0864   -2.3866   -3.5122 H       1  UNL1        0.0350
     35 H          -7.0062   -2.1748   -1.6681 H       1  UNL1        0.0581
     36 H          -6.9732   -0.3165    0.4043 H       1  UNL1        0.0624
     37 H          -5.4971    1.1788    1.6330 H       1  UNL1        0.0624
     38 H          -1.3710   -2.5903   -0.7866 H       1  UNL1        0.0836
     39 H           3.2794   -1.7308   -0.5798 H       1  UNL1        0.0651
     40 H           0.1893    2.9238    2.0183 H       1  UNL1        0.0581
     41 H          -1.8437    3.3839    3.6382 H       1  UNL1        0.0350
     42 H          -2.0265    4.3705    2.1569 H       1  UNL1        0.0350
     43 H          -4.1526    2.8036    2.4210 H       1  UNL1        0.0581
     44 H           7.7724    1.8151    1.7347 H       1  UNL1        0.0715
     45 H           8.8812   -0.7087   -2.2285 H       1  UNL1        0.0845
     46 H           6.6609   -1.5379   -2.9856 H       1  UNL1        0.0845
     47 H          -2.6892   -2.2650   -2.4346 H       1  UNL1        0.0581
@<TRIPOS>BOND
     1     1     2    1
     2     2     3    2
     3     3     4   ar
     4     4     5   ar
     5     5     6   ar
     6     6     7   ar
     7     7     8   ar
     8     8     9   ar
     9     9    10   ar
    10    10    11   ar
    11    11    12   ar
    12    12    13   ar
    13    13    14   ar
    14    14    15   ar
    15    15    16   ar
    16    16    17   ar
    17    17    18    2
    18    18    19    1
    19    19    20    1
    20    20    21    2
    21    13    22    1
    22    22    23   ar
    23    23    24   ar
    24    24    25   ar
    25    25    26   ar
    26    26    27   ar
    27    27    28   ar
    28    28    29   ar
    29    29    30   ar
    30     7    31   ar
    31    31    32    2
    32    32     1    1
    33    31     3   ar
    34    21     6   ar
    35    30    22   ar
    36    16     8   ar
    37    21    17   ar
    38    30    25   ar
    39    15    11   ar
    40     1    33    1
    41     1    34    1
    42     2    35    1
    43     4    36    1
    44     5    37    1
    45     9    38    1
    46    12    39    1
    47    18    40    1
    48    19    41    1
    49    19    42    1
    50    20    43    1
    51    24    44    1
    52    27    45    1
    53    28    46    1
    54    32    47    1
