@<TRIPOS>MOLECULE
*****
 45 51 0 0 0
SMALL
GASTEIGER

@<TRIPOS>ATOM
      1 C          -4.0303    3.8438    1.3592 C.3     1  UNL1        0.0000
      2 C          -5.1819    2.8813    1.3234 C.2     1  UNL1        0.0000
      3 C          -4.7228    1.6639    1.0069 C.ar    1  UNL1        0.0000
      4 C          -5.4388    0.4317    0.8535 C.ar    1  UNL1        0.0000
      5 C          -4.7358   -0.6688    0.5264 C.ar    1  UNL1        0.0000
      6 C          -3.2596   -0.6822    0.3147 C.ar    1  UNL1        0.0000
      7 C          -2.5421    0.4907    0.4559 C.ar    1  UNL1        0.0000
      8 C          -1.1116    0.4346    0.2418 C.ar    1  UNL1        0.0000
      9 O          -0.2364    1.5063    0.3414 O.2     1  UNL1        0.0000
     10 C           0.9952    1.0046    0.0626 C.ar    1  UNL1        0.0000
     11 C           2.3119    1.4808   -0.0217 C.ar    1  UNL1        0.0000
     12 C           3.0638    0.3601   -0.3704 C.ar    1  UNL1        0.0000
     13 N           2.2096   -0.7303   -0.4704 N.ar    1  UNL1        0.0000
     14 C           0.9359   -0.3118   -0.2046 C.ar    1  UNL1        0.0000
     15 C          -0.3998   -0.7103   -0.0968 C.ar    1  UNL1        0.0000
     16 C          -1.0563   -1.9482   -0.2595 C.ar    1  UNL1        0.0000
     17 C          -0.5163   -3.1380   -0.5811 C.2     1  UNL1        0.0000
     18 SI         -1.8305   -4.4563   -0.6663 Si      1  UNL1        0.0000
     19 C          -3.0966   -3.1531   -0.2183 C.2     1  UNL1        0.0000
     20 C          -2.5316   -1.9367   -0.0477 C.ar    1  UNL1        0.0000
     21 C           4.5087    0.2383   -0.5902 C.ar    1  UNL1        0.0000
     22 C           5.0211   -0.6149   -1.5775 C.ar    1  UNL1        0.0000
     23 C           6.4000   -0.7256   -1.7782 C.ar    1  UNL1        0.0000
     24 C           7.2814    0.0159   -0.9948 C.ar    1  UNL1        0.0000
     25 C           6.7855    0.8710   -0.0134 C.ar    1  UNL1        0.0000
     26 C           5.4069    0.9828    0.1860 C.ar    1  UNL1        0.0000
     27 C          -3.2800    1.7044    0.8112 C.ar    1  UNL1        0.0000
     28 C          -2.8622    2.9652    1.0124 C.2     1  UNL1        0.0000
     29 H          -3.9124    4.2806    2.3552 H       1  UNL1        0.0000
     30 H          -4.1581    4.6392    0.6193 H       1  UNL1        0.0000
     31 H          -6.2082    3.1462    1.5233 H       1  UNL1        0.0000
     32 H          -6.5118    0.4046    0.9997 H       1  UNL1        0.0000
     33 H          -5.2722   -1.6036    0.4089 H       1  UNL1        0.0000
     34 H           2.6660    2.4886    0.1374 H       1  UNL1        0.0000
     35 H           2.4574   -1.6871   -0.6837 H       1  UNL1        0.0000
     36 H           0.5192   -3.3620   -0.7732 H       1  UNL1        0.0000
     37 H          -1.6733   -5.4807    0.3932 H       1  UNL1        0.0000
     38 H          -2.0179   -4.9787   -2.0406 H       1  UNL1        0.0000
     39 H          -4.1337   -3.4281   -0.1275 H       1  UNL1        0.0000
     40 H           4.3543   -1.1866   -2.2174 H       1  UNL1        0.0000
     41 H           6.7846   -1.3858   -2.5513 H       1  UNL1        0.0000
     42 H           8.3535   -0.0688   -1.1515 H       1  UNL1        0.0000
     43 H           7.4699    1.4522    0.5990 H       1  UNL1        0.0000
     44 H           5.0410    1.6500    0.9629 H       1  UNL1        0.0000
     45 H          -1.8457    3.3207    0.9418 H       1  UNL1        0.0000
@<TRIPOS>BOND
     1     1     2    1
     2     2     3    2
     3     3     4   ar
     4     4     5   ar
     5     5     6   ar
     6     6     7   ar
     7     7     8   ar
     8     8     9   ar
     9     9    10   ar
    10    10    11   ar
    11    11    12   ar
    12    12    13   ar
    13    13    14   ar
    14    14    15   ar
    15    15    16   ar
    16    16    17    2
    17    17    18    1
    18    18    19    1
    19    19    20    2
    20    12    21    1
    21    21    22   ar
    22    22    23   ar
    23    23    24   ar
    24    24    25   ar
    25    25    26   ar
    26     7    27   ar
    27    27    28    2
    28    28     1    1
    29    27     3   ar
    30    20     6   ar
    31    26    21   ar
    32    15     8   ar
    33    20    16   ar
    34    14    10   ar
    35     1    29    1
    36     1    30    1
    37     2    31    1
    38     4    32    1
    39     5    33    1
    40    11    34    1
    41    13    35    1
    42    17    36    1
    43    18    37    1
    44    18    38    1
    45    19    39    1
    46    22    40    1
    47    23    41    1
    48    24    42    1
    49    25    43    1
    50    26    44    1
    51    28    45    1
