@<TRIPOS>MOLECULE
*****
 45 51 0 0 0
SMALL
GASTEIGER

@<TRIPOS>ATOM
      1 C          -5.2580    2.0180   -2.3489 C.3     1  UNL1        0.0000
      2 C          -6.0706    1.1764   -1.4206 C.2     1  UNL1        0.0000
      3 C          -5.2434    0.4717   -0.6389 C.ar    1  UNL1        0.0000
      4 C          -5.5865   -0.4583    0.3888 C.ar    1  UNL1        0.0000
      5 C          -4.5808   -1.0524    1.0492 C.ar    1  UNL1        0.0000
      6 C          -3.1356   -0.8046    0.7795 C.ar    1  UNL1        0.0000
      7 C          -2.7490    0.0892   -0.2083 C.ar    1  UNL1        0.0000
      8 C          -1.3056    0.2684   -0.4027 C.ar    1  UNL1        0.0000
      9 S          -0.6176    1.3365   -1.5838 S.2     1  UNL1        0.0000
     10 C           0.9842    0.9169   -1.1138 C.ar    1  UNL1        0.0000
     11 C           2.3258    1.2342   -1.4609 C.ar    1  UNL1        0.0000
     12 C           3.1441    0.4838   -0.6272 C.ar    1  UNL1        0.0000
     13 N           2.3159   -0.2578    0.1912 N.ar    1  UNL1        0.0000
     14 C           1.0019    0.0090   -0.1085 C.ar    1  UNL1        0.0000
     15 C          -0.2968   -0.3772    0.3151 C.ar    1  UNL1        0.0000
     16 C          -0.6445   -1.3027    1.3385 C.ar    1  UNL1        0.0000
     17 C           0.1783   -2.0170    2.1317 C.2     1  UNL1        0.0000
     18 SI         -0.7799   -3.0884    3.3146 Si      1  UNL1        0.0000
     19 C          -2.3435   -2.4113    2.5602 C.2     1  UNL1        0.0000
     20 C          -2.0950   -1.5192    1.5735 C.ar    1  UNL1        0.0000
     21 C           4.6176    0.4216   -0.5532 C.ar    1  UNL1        0.0000
     22 C           5.2816   -0.4060    0.3665 C.ar    1  UNL1        0.0000
     23 C           6.6796   -0.4515    0.4217 C.ar    1  UNL1        0.0000
     24 C           7.4398    0.3303   -0.4421 C.ar    1  UNL1        0.0000
     25 C           6.8029    1.1573   -1.3611 C.ar    1  UNL1        0.0000
     26 C           5.4057    1.2014   -1.4148 C.ar    1  UNL1        0.0000
     27 C          -3.8439    0.7611   -0.9547 C.ar    1  UNL1        0.0000
     28 C          -3.8524    1.6642   -1.9534 C.2     1  UNL1        0.0000
     29 H          -5.4506    1.7558   -3.3933 H       1  UNL1        0.0000
     30 H          -5.4542    3.0828   -2.1933 H       1  UNL1        0.0000
     31 H          -7.1489    1.1529   -1.3978 H       1  UNL1        0.0000
     32 H          -6.6249   -0.6665    0.6159 H       1  UNL1        0.0000
     33 H          -4.8419   -1.7581    1.8290 H       1  UNL1        0.0000
     34 H           2.6342    1.9291   -2.2292 H       1  UNL1        0.0000
     35 H           2.5922   -0.9076    0.9116 H       1  UNL1        0.0000
     36 H           1.2522   -2.0290    2.1482 H       1  UNL1        0.0000
     37 H          -0.5935   -4.5336    3.0441 H       1  UNL1        0.0000
     38 H          -0.5987   -2.6725    4.7255 H       1  UNL1        0.0000
     39 H          -3.2936   -2.7519    2.9344 H       1  UNL1        0.0000
     40 H           4.7333   -1.0340    1.0607 H       1  UNL1        0.0000
     41 H           7.1727   -1.0995    1.1417 H       1  UNL1        0.0000
     42 H           8.5250    0.2953   -0.3996 H       1  UNL1        0.0000
     43 H           7.3896    1.7712   -2.0395 H       1  UNL1        0.0000
     44 H           4.9450    1.8598   -2.1462 H       1  UNL1        0.0000
     45 H          -3.0120    2.1155   -2.4498 H       1  UNL1        0.0000
@<TRIPOS>BOND
     1     1     2    1
     2     2     3    2
     3     3     4   ar
     4     4     5   ar
     5     5     6   ar
     6     6     7   ar
     7     7     8   ar
     8     8     9   ar
     9     9    10   ar
    10    10    11   ar
    11    11    12   ar
    12    12    13   ar
    13    13    14   ar
    14    14    15   ar
    15    15    16   ar
    16    16    17    2
    17    17    18    1
    18    18    19    1
    19    19    20    2
    20    12    21    1
    21    21    22   ar
    22    22    23   ar
    23    23    24   ar
    24    24    25   ar
    25    25    26   ar
    26     7    27   ar
    27    27    28    2
    28    28     1    1
    29    27     3   ar
    30    20     6   ar
    31    26    21   ar
    32    15     8   ar
    33    20    16   ar
    34    14    10   ar
    35     1    29    1
    36     1    30    1
    37     2    31    1
    38     4    32    1
    39     5    33    1
    40    11    34    1
    41    13    35    1
    42    17    36    1
    43    18    37    1
    44    18    38    1
    45    19    39    1
    46    22    40    1
    47    23    41    1
    48    24    42    1
    49    25    43    1
    50    26    44    1
    51    28    45    1
