@<TRIPOS>MOLECULE
*****
 40 46 0 0 0
SMALL
GASTEIGER

@<TRIPOS>ATOM
      1 C          -4.6483    2.6093   -1.5880 C.3     1  UNL1       -0.0148
      2 C          -5.3919    1.4048   -1.1090 C.2     1  UNL1       -0.0725
      3 C          -4.5141    0.5150   -0.6296 C.ar    1  UNL1       -0.0212
      4 C          -4.7817   -0.7739   -0.0707 C.ar    1  UNL1       -0.0537
      5 C          -3.7336   -1.4997    0.3496 C.ar    1  UNL1       -0.0528
      6 C          -2.3217   -1.0429    0.2674 C.ar    1  UNL1       -0.0088
      7 C          -2.0037    0.2000   -0.2665 C.ar    1  UNL1        0.0045
      8 C          -0.5764    0.5548   -0.3014 C.ar    1  UNL1        0.0324
      9 S           0.0593    2.0539   -0.9232 S.2     1  UNL1       -0.0843
     10 C           1.6827    1.5816   -0.5670 C.ar    1  UNL1        0.0591
     11 C           3.0118    2.0570   -0.6651 C.ar    1  UNL1       -0.0009
     12 C           3.7883    1.0403   -0.1373 C.ar    1  UNL1        0.1448
     13 O           2.9957   -0.0097    0.2678 O.2     1  UNL1       -0.4531
     14 C           1.7134    0.3556   -0.0100 C.ar    1  UNL1        0.1510
     15 C           0.4648   -0.2552    0.1563 C.ar    1  UNL1        0.0401
     16 C           0.1700   -1.5189    0.7016 C.ar    1  UNL1       -0.0094
     17 C           0.9502   -2.4825    1.2059 C.2     1  UNL1       -0.0718
     18 C           0.0899   -3.6261    1.6472 C.3     1  UNL1       -0.0148
     19 C          -1.2920   -3.1408    1.3063 C.2     1  UNL1       -0.0719
     20 C          -1.2315   -1.9135    0.7568 C.ar    1  UNL1       -0.0133
     21 C           5.2170    0.9826    0.0143 C.ar    1  UNL1        0.0739
     22 C           5.9570   -0.0563    0.5492 C.ar    1  UNL1        0.0454
     23 N           7.3280    0.1267    0.5868 N.ar    1  UNL1       -0.2550
     24 C           7.6139    1.3044    0.0792 C.ar    1  UNL1        0.0653
     25 S           6.2839    2.2408   -0.4611 S.2     1  UNL1       -0.0724
     26 C          -3.1440    1.0203   -0.7375 C.ar    1  UNL1       -0.0130
     27 C          -3.2204    2.2422   -1.2965 C.2     1  UNL1       -0.0719
     28 H          -4.8022    2.7700   -2.6590 H       1  UNL1        0.0350
     29 H          -4.9452    3.5046   -1.0338 H       1  UNL1        0.0350
     30 H          -6.4636    1.2883   -1.1506 H       1  UNL1        0.0581
     31 H          -5.7992   -1.1381    0.0044 H       1  UNL1        0.0624
     32 H          -3.9247   -2.4789    0.7754 H       1  UNL1        0.0624
     33 H           3.3444    3.0040   -1.0640 H       1  UNL1        0.0667
     34 H           2.0260   -2.4546    1.2879 H       1  UNL1        0.0581
     35 H           0.1901   -3.8046    2.7217 H       1  UNL1        0.0350
     36 H           0.3330   -4.5394    1.0963 H       1  UNL1        0.0350
     37 H          -2.1789   -3.7253    1.4925 H       1  UNL1        0.0581
     38 H           5.5398   -0.9810    0.9308 H       1  UNL1        0.0842
     39 H           8.6302    1.6686    0.0037 H       1  UNL1        0.0907
     40 H          -2.4163    2.9169   -1.5306 H       1  UNL1        0.0581
@<TRIPOS>BOND
     1     1     2    1
     2     2     3    2
     3     3     4   ar
     4     4     5   ar
     5     5     6   ar
     6     6     7   ar
     7     7     8   ar
     8     8     9   ar
     9     9    10   ar
    10    10    11   ar
    11    11    12   ar
    12    12    13   ar
    13    13    14   ar
    14    14    15   ar
    15    15    16   ar
    16    16    17    2
    17    17    18    1
    18    18    19    1
    19    19    20    2
    20    12    21    1
    21    21    22   ar
    22    22    23   ar
    23    23    24   ar
    24    24    25   ar
    25     7    26   ar
    26    26    27    2
    27    27     1    1
    28    26     3   ar
    29    20     6   ar
    30    25    21   ar
    31    15     8   ar
    32    20    16   ar
    33    14    10   ar
    34     1    28    1
    35     1    29    1
    36     2    30    1
    37     4    31    1
    38     5    32    1
    39    11    33    1
    40    17    34    1
    41    18    35    1
    42    18    36    1
    43    19    37    1
    44    22    38    1
    45    24    39    1
    46    27    40    1
