@<TRIPOS>MOLECULE
*****
 42 48 0 0 0
SMALL
GASTEIGER

@<TRIPOS>ATOM
      1 SI          2.3063   -2.0244    3.0307 Si      1  UNL1        0.0000
      2 C           3.3281   -1.2120    1.7175 C.2     1  UNL1        0.0000
      3 C           2.5635   -0.6200    0.7756 C.ar    1  UNL1        0.0000
      4 C           3.0996    0.1098   -0.3779 C.ar    1  UNL1        0.0000
      5 C           2.2305    0.6835   -1.2376 C.ar    1  UNL1        0.0000
      6 C           0.7649    0.5870   -1.0738 C.ar    1  UNL1        0.0000
      7 C          -0.0726    1.1956   -2.0031 C.ar    1  UNL1        0.0000
      8 N          -1.4192    1.1821   -1.9826 N.ar    1  UNL1        0.0000
      9 C          -1.9689    0.4939   -0.9536 C.ar    1  UNL1        0.0000
     10 C          -1.2187   -0.1583    0.0383 C.ar    1  UNL1        0.0000
     11 N          -2.1331   -0.7509    0.8932 N.ar    1  UNL1        0.0000
     12 C          -3.4348   -0.5017    0.5102 C.ar    1  UNL1        0.0000
     13 C          -4.6719   -0.8952    1.0760 C.ar    1  UNL1        0.0000
     14 C          -5.8875   -0.5021    0.4754 C.ar    1  UNL1        0.0000
     15 C          -5.7233    0.2729   -0.6741 C.ar    1  UNL1        0.0000
     16 C          -6.7918    0.7500   -1.3991 C.ar    1  UNL1        0.0000
     17 S          -6.2788    1.6757   -2.7690 S.2     1  UNL1        0.0000
     18 C          -4.6096    1.4446   -2.4018 C.ar    1  UNL1        0.0000
     19 C          -4.5111    0.6869   -1.2728 C.ar    1  UNL1        0.0000
     20 C          -3.3082    0.2672   -0.6307 C.ar    1  UNL1        0.0000
     21 C           0.1864   -0.1176    0.0057 C.ar    1  UNL1        0.0000
     22 C           1.0916   -0.7476    0.9952 C.ar    1  UNL1        0.0000
     23 C           0.7754   -1.4331    2.1148 C.2     1  UNL1        0.0000
     24 C           4.4913    0.2884   -0.6633 C.ar    1  UNL1        0.0000
     25 C           5.3215    1.3399   -0.3148 C.ar    1  UNL1        0.0000
     26 C           6.6584    1.1648   -0.7761 C.ar    1  UNL1        0.0000
     27 C           6.8137   -0.0170   -1.4634 C.ar    1  UNL1        0.0000
     28 S           5.3571   -0.9075   -1.5493 S.2     1  UNL1        0.0000
     29 H           2.4093   -3.5029    3.0265 H       1  UNL1        0.0000
     30 H           2.4341   -1.3744    4.3567 H       1  UNL1        0.0000
     31 H           4.4062   -1.2397    1.7562 H       1  UNL1        0.0000
     32 H           2.5905    1.2375   -2.1013 H       1  UNL1        0.0000
     33 H           0.3423    1.7462   -2.8448 H       1  UNL1        0.0000
     34 H          -1.8965   -1.3080    1.6958 H       1  UNL1        0.0000
     35 H          -4.6946   -1.5033    1.9773 H       1  UNL1        0.0000
     36 H          -6.8478   -0.7884    0.8866 H       1  UNL1        0.0000
     37 H          -7.8492    0.6174   -1.2173 H       1  UNL1        0.0000
     38 H          -3.8328    1.8691   -3.0229 H       1  UNL1        0.0000
     39 H          -0.1773   -1.6724    2.5415 H       1  UNL1        0.0000
     40 H           4.9794    2.1987    0.2508 H       1  UNL1        0.0000
     41 H           7.4639    1.8698   -0.6109 H       1  UNL1        0.0000
     42 H           7.7136   -0.4044   -1.9209 H       1  UNL1        0.0000
@<TRIPOS>BOND
     1     1     2    1
     2     2     3    2
     3     3     4   ar
     4     4     5   ar
     5     5     6   ar
     6     6     7   ar
     7     7     8   ar
     8     8     9   ar
     9     9    10   ar
    10    10    11   ar
    11    11    12   ar
    12    12    13   ar
    13    13    14   ar
    14    14    15   ar
    15    15    16   ar
    16    16    17   ar
    17    17    18   ar
    18    18    19   ar
    19    19    20   ar
    20    10    21   ar
    21    21    22   ar
    22    22    23    2
    23     4    24    1
    24    24    25   ar
    25    25    26   ar
    26    26    27   ar
    27    27    28   ar
    28    23     1    1
    29    28    24   ar
    30    22     3   ar
    31    21     6   ar
    32    20     9   ar
    33    20    12   ar
    34    19    15   ar
    35     1    29    1
    36     1    30    1
    37     2    31    1
    38     5    32    1
    39     7    33    1
    40    11    34    1
    41    13    35    1
    42    14    36    1
    43    16    37    1
    44    18    38    1
    45    23    39    1
    46    25    40    1
    47    26    41    1
    48    27    42    1
