@<TRIPOS>MOLECULE
*****
 47 54 0 0 0
SMALL
GASTEIGER

@<TRIPOS>ATOM
      1 C          -4.5972    3.6798   -0.0755 C.3     1  UNL1       -0.0148
      2 C          -5.7588    2.7352    0.0472 C.2     1  UNL1       -0.0725
      3 C          -5.3015    1.4787    0.1356 C.ar    1  UNL1       -0.0211
      4 C          -6.0552    0.2542    0.2666 C.ar    1  UNL1       -0.0537
      5 C          -5.4067   -0.9248    0.3414 C.ar    1  UNL1       -0.0527
      6 C          -3.9336   -0.9735    0.2905 C.ar    1  UNL1       -0.0046
      7 C          -3.1845   -2.1549    0.3618 C.ar    1  UNL1        0.0079
      8 C          -3.6526   -3.4453    0.4877 C.ar    1  UNL1        0.0100
      9 N          -2.5612   -4.2995    0.5187 N.ar    1  UNL1       -0.3659
     10 C          -1.3856   -3.5821    0.4145 C.ar    1  UNL1        0.0101
     11 C          -1.7810   -2.2825    0.3201 C.ar    1  UNL1        0.0114
     12 C          -1.0163   -1.0918    0.1914 C.ar    1  UNL1        0.0391
     13 C           0.3568   -0.8602    0.1207 C.ar    1  UNL1        0.0467
     14 C           1.5423   -1.5846    0.1372 C.ar    1  UNL1        0.0396
     15 N           2.7339   -0.9388    0.0384 N.ar    1  UNL1       -0.2536
     16 C           2.7860    0.4174   -0.0775 C.ar    1  UNL1        0.0816
     17 C           1.6463    1.2152   -0.1020 C.ar    1  UNL1        0.0078
     18 C           0.4474    0.5232    0.0010 C.ar    1  UNL1        0.1398
     19 O          -0.7927    1.1044   -0.0015 O.2     1  UNL1       -0.4540
     20 C          -1.7197    0.0979    0.1177 C.ar    1  UNL1        0.1452
     21 C          -3.1265    0.2050    0.1613 C.ar    1  UNL1        0.0331
     22 C          -3.8405    1.4843    0.0806 C.ar    1  UNL1       -0.0105
     23 C          -3.4158    2.7519   -0.0417 C.2     1  UNL1       -0.0718
     24 C           4.1565    0.9596   -0.1742 C.ar    1  UNL1        0.0450
     25 S           4.4536    2.6729   -0.3250 S.2     1  UNL1       -0.0942
     26 C           6.1659    2.4960   -0.3763 C.ar    1  UNL1       -0.0196
     27 C           6.5072    1.1778   -0.2820 C.ar    1  UNL1       -0.0288
     28 C           7.7619    0.3734   -0.2645 C.3     1  UNL1       -0.0081
     29 C           7.1877   -1.0366   -0.1277 C.2     1  UNL1       -0.0791
     30 C           5.8365   -1.0129   -0.0779 C.2     1  UNL1       -0.0568
     31 C           5.3771    0.3296   -0.1696 C.ar    1  UNL1       -0.0056
     32 H          -4.5703    4.3818    0.7630 H       1  UNL1        0.0350
     33 H          -4.6368    4.2322   -1.0189 H       1  UNL1        0.0350
     34 H          -6.7936    3.0398    0.0603 H       1  UNL1        0.0581
     35 H          -7.1377    0.3025    0.3030 H       1  UNL1        0.0624
     36 H          -5.9602   -1.8504    0.4399 H       1  UNL1        0.0624
     37 H          -4.6513   -3.8538    0.5593 H       1  UNL1        0.0813
     38 H          -2.6203   -5.3062    0.6055 H       1  UNL1        0.1648
     39 H          -0.4268   -4.0797    0.4205 H       1  UNL1        0.0813
     40 H           1.5888   -2.6627    0.2261 H       1  UNL1        0.0837
     41 H           1.6575    2.2908   -0.1929 H       1  UNL1        0.0676
     42 H          -2.3907    3.0816   -0.1077 H       1  UNL1        0.0581
     43 H           6.8077    3.3605   -0.4712 H       1  UNL1        0.0696
     44 H           8.3242    0.4762   -1.1967 H       1  UNL1        0.0356
     45 H           8.3927    0.6219    0.5934 H       1  UNL1        0.0356
     46 H           7.7951   -1.9276   -0.0784 H       1  UNL1        0.0575
     47 H           5.1921   -1.8758    0.0171 H       1  UNL1        0.0621
@<TRIPOS>BOND
     1     1     2    1
     2     2     3    2
     3     3     4   ar
     4     4     5   ar
     5     5     6   ar
     6     6     7   ar
     7     7     8   ar
     8     8     9   ar
     9     9    10   ar
    10    10    11   ar
    11    11    12   ar
    12    12    13   ar
    13    13    14   ar
    14    14    15   ar
    15    15    16   ar
    16    16    17   ar
    17    17    18   ar
    18    18    19   ar
    19    19    20   ar
    20    20    21   ar
    21    21    22   ar
    22    22    23    2
    23    16    24    1
    24    24    25   ar
    25    25    26   ar
    26    26    27   ar
    27    27    28    1
    28    28    29    1
    29    29    30    2
    30    30    31    1
    31    23     1    1
    32    31    24   ar
    33    22     3   ar
    34    31    27   ar
    35    21     6   ar
    36    11     7   ar
    37    20    12   ar
    38    18    13   ar
    39     1    32    1
    40     1    33    1
    41     2    34    1
    42     4    35    1
    43     5    36    1
    44     8    37    1
    45     9    38    1
    46    10    39    1
    47    14    40    1
    48    17    41    1
    49    23    42    1
    50    26    43    1
    51    28    44    1
    52    28    45    1
    53    29    46    1
    54    30    47    1
