@<TRIPOS>MOLECULE
*****
 41 46 0 0 0
SMALL
GASTEIGER

@<TRIPOS>ATOM
      1 C          -4.0048   -3.2197    0.0632 C.3     1  UNL1        0.0000
      2 C          -4.9493   -2.0643    0.1343 C.2     1  UNL1        0.0000
      3 C          -4.2474   -0.9239    0.1766 C.ar    1  UNL1        0.0000
      4 C          -4.7686    0.4018    0.3638 C.ar    1  UNL1        0.0000
      5 C          -3.9107    1.4221    0.5198 C.ar    1  UNL1        0.0000
      6 C          -2.4588    1.1985    0.4383 C.ar    1  UNL1        0.0000
      7 C          -1.5326    2.2296    0.6143 C.ar    1  UNL1        0.0000
      8 C          -1.7795    3.5423    0.9426 C.ar    1  UNL1        0.0000
      9 N          -0.5640    4.1857    1.0136 N.ar    1  UNL1        0.0000
     10 C           0.4543    3.3036    0.7282 C.ar    1  UNL1        0.0000
     11 C          -0.1218    2.0799    0.4780 C.ar    1  UNL1        0.0000
     12 C           0.5355    0.8825    0.1132 C.ar    1  UNL1        0.0000
     13 C           1.9340    0.7554   -0.0618 C.ar    1  UNL1        0.0000
     14 C           2.4490   -0.4598   -0.4790 C.ar    1  UNL1        0.0000
     15 N           1.6303   -1.4981   -0.7536 N.ar    1  UNL1        0.0000
     16 C           0.2876   -1.3416   -0.5697 C.ar    1  UNL1        0.0000
     17 C          -0.3732   -0.2016   -0.0945 C.ar    1  UNL1        0.0000
     18 C          -1.8273   -0.0688    0.1327 C.ar    1  UNL1        0.0000
     19 C          -2.8082   -1.2018    0.0879 C.ar    1  UNL1        0.0000
     20 C          -2.6640   -2.5403    0.0787 C.2     1  UNL1        0.0000
     21 C           3.8740   -0.7213   -0.6894 C.2     1  UNL1        0.0000
     22 C           4.3958   -1.7369   -1.4163 C.2     1  UNL1        0.0000
     23 C           5.8486   -1.8116   -1.4608 C.2     1  UNL1        0.0000
     24 C           6.4905   -0.8642   -0.7548 C.2     1  UNL1        0.0000
     25 SI          5.2675    0.2810    0.0846 Si      1  UNL1        0.0000
     26 H          -4.1457   -3.7956   -0.8560 H       1  UNL1        0.0000
     27 H          -4.1206   -3.8755    0.9312 H       1  UNL1        0.0000
     28 H          -6.0222   -2.1562    0.2019 H       1  UNL1        0.0000
     29 H          -5.8406    0.5544    0.4135 H       1  UNL1        0.0000
     30 H          -4.2839    2.4255    0.6826 H       1  UNL1        0.0000
     31 H          -2.6917    4.0883    1.1391 H       1  UNL1        0.0000
     32 H          -0.4386    5.1647    1.2376 H       1  UNL1        0.0000
     33 H           1.4803    3.6441    0.7286 H       1  UNL1        0.0000
     34 H           2.5729    1.6122    0.1076 H       1  UNL1        0.0000
     35 H          -0.2571   -2.2192   -0.8916 H       1  UNL1        0.0000
     36 H          -1.7554   -3.1152    0.1171 H       1  UNL1        0.0000
     37 H           3.7931   -2.4688   -1.9430 H       1  UNL1        0.0000
     38 H           6.3470   -2.5878   -2.0282 H       1  UNL1        0.0000
     39 H           7.5567   -0.7401   -0.6523 H       1  UNL1        0.0000
     40 H           5.3327    1.6681   -0.4424 H       1  UNL1        0.0000
     41 H           5.3164    0.1727    1.5639 H       1  UNL1        0.0000
@<TRIPOS>BOND
     1     1     2    1
     2     2     3    2
     3     3     4   ar
     4     4     5   ar
     5     5     6   ar
     6     6     7   ar
     7     7     8   ar
     8     8     9   ar
     9     9    10   ar
    10    10    11   ar
    11    11    12   ar
    12    12    13   ar
    13    13    14   ar
    14    14    15   ar
    15    15    16   ar
    16    16    17   ar
    17    17    18   ar
    18    18    19   ar
    19    19    20    2
    20    14    21    1
    21    21    22    2
    22    22    23    1
    23    23    24    2
    24    24    25    1
    25    20     1    1
    26    25    21    1
    27    19     3   ar
    28    18     6   ar
    29    11     7   ar
    30    17    12   ar
    31     1    26    1
    32     1    27    1
    33     2    28    1
    34     4    29    1
    35     5    30    1
    36     8    31    1
    37     9    32    1
    38    10    33    1
    39    13    34    1
    40    16    35    1
    41    20    36    1
    42    22    37    1
    43    23    38    1
    44    24    39    1
    45    25    40    1
    46    25    41    1
