@<TRIPOS>MOLECULE
*****
 50 57 0 0 0
SMALL
GASTEIGER

@<TRIPOS>ATOM
      1 C          -3.8381   -3.4646    1.6579 C.3     1  UNL1        0.0000
      2 C          -5.0613   -2.9062    1.0062 C.2     1  UNL1        0.0000
      3 C          -4.7597   -1.7299    0.4401 C.ar    1  UNL1        0.0000
      4 C          -5.6764   -0.8071   -0.1696 C.ar    1  UNL1        0.0000
      5 C          -5.2286    0.4021   -0.5423 C.ar    1  UNL1        0.0000
      6 C          -3.8068    0.7528   -0.3957 C.ar    1  UNL1        0.0000
      7 C          -3.3085    2.0110   -0.7389 C.ar    1  UNL1        0.0000
      8 C          -4.0127    3.1104   -1.1722 C.ar    1  UNL1        0.0000
      9 N          -3.1058    4.1261   -1.3763 N.ar    1  UNL1        0.0000
     10 C          -1.8333    3.6869   -1.0883 C.ar    1  UNL1        0.0000
     11 C          -1.9324    2.3747   -0.6872 C.ar    1  UNL1        0.0000
     12 C          -0.8767    1.5063   -0.3251 C.ar    1  UNL1        0.0000
     13 C           0.4896    1.8784   -0.3298 C.ar    1  UNL1        0.0000
     14 C           1.4748    0.9394   -0.0310 C.ar    1  UNL1        0.0000
     15 C           2.8962    1.3471   -0.0614 C.ar    1  UNL1        0.0000
     16 C           3.9215    0.4927    0.1635 C.ar    1  UNL1        0.0000
     17 C           5.2384    1.0585    0.0479 C.ar    1  UNL1        0.0000
     18 N           5.6882    2.1290    0.6831 N.ar    1  UNL1        0.0000
     19 C           6.9849    2.4129    0.3072 C.ar    1  UNL1        0.0000
     20 C           7.5248    1.5769   -0.6415 C.ar    1  UNL1        0.0000
     21 S           6.3751    0.3921   -1.0879 S.2     1  UNL1        0.0000
     22 C           3.5926   -0.8990    0.5010 C.ar    1  UNL1        0.0000
     23 C           4.4829   -1.8577    0.8365 C.2     1  UNL1        0.0000
     24 SI          3.6512   -3.4866    1.1968 Si      1  UNL1        0.0000
     25 C           2.0140   -2.6543    0.8643 C.2     1  UNL1        0.0000
     26 C           2.1772   -1.3554    0.5340 C.ar    1  UNL1        0.0000
     27 C           1.0933   -0.3845    0.2522 C.ar    1  UNL1        0.0000
     28 C          -0.2755   -0.7314    0.2549 C.ar    1  UNL1        0.0000
     29 C          -1.3289    0.1874    0.0192 C.ar    1  UNL1        0.0000
     30 C          -2.7689   -0.1477    0.0658 C.ar    1  UNL1        0.0000
     31 C          -3.3319   -1.4305    0.6048 C.ar    1  UNL1        0.0000
     32 C          -2.8095   -2.4084    1.3691 C.2     1  UNL1        0.0000
     33 H          -3.5535   -4.4250    1.2187 H       1  UNL1        0.0000
     34 H          -3.9863   -3.5810    2.7356 H       1  UNL1        0.0000
     35 H          -6.0399   -3.3578    1.0559 H       1  UNL1        0.0000
     36 H          -6.7194   -1.0806   -0.2804 H       1  UNL1        0.0000
     37 H          -5.9081    1.1217   -0.9816 H       1  UNL1        0.0000
     38 H          -5.0651    3.2816   -1.3502 H       1  UNL1        0.0000
     39 H          -3.3398    5.0573   -1.6957 H       1  UNL1        0.0000
     40 H          -0.9910    4.3546   -1.2039 H       1  UNL1        0.0000
     41 H           0.7721    2.8962   -0.5823 H       1  UNL1        0.0000
     42 H           3.0942    2.3905   -0.2977 H       1  UNL1        0.0000
     43 H           7.4935    3.2555    0.7594 H       1  UNL1        0.0000
     44 H           8.5086    1.6092   -1.0861 H       1  UNL1        0.0000
     45 H           5.5541   -1.7675    0.9162 H       1  UNL1        0.0000
     46 H           3.7972   -3.9021    2.6124 H       1  UNL1        0.0000
     47 H           3.9730   -4.5247    0.1885 H       1  UNL1        0.0000
     48 H           1.0967   -3.2092    0.9672 H       1  UNL1        0.0000
     49 H          -0.5175   -1.7761    0.3923 H       1  UNL1        0.0000
     50 H          -1.8186   -2.4641    1.7854 H       1  UNL1        0.0000
@<TRIPOS>BOND
     1     1     2    1
     2     2     3    2
     3     3     4   ar
     4     4     5   ar
     5     5     6   ar
     6     6     7   ar
     7     7     8   ar
     8     8     9   ar
     9     9    10   ar
    10    10    11   ar
    11    11    12   ar
    12    12    13   ar
    13    13    14   ar
    14    14    15   ar
    15    15    16   ar
    16    16    17    1
    17    17    18   ar
    18    18    19   ar
    19    19    20   ar
    20    20    21   ar
    21    16    22   ar
    22    22    23    2
    23    23    24    1
    24    24    25    1
    25    25    26    2
    26    26    27   ar
    27    27    28   ar
    28    28    29   ar
    29    29    30   ar
    30    30    31   ar
    31    31    32    2
    32    32     1    1
    33    31     3   ar
    34    30     6   ar
    35    11     7   ar
    36    29    12   ar
    37    27    14   ar
    38    21    17   ar
    39    26    22   ar
    40     1    33    1
    41     1    34    1
    42     2    35    1
    43     4    36    1
    44     5    37    1
    45     8    38    1
    46     9    39    1
    47    10    40    1
    48    13    41    1
    49    15    42    1
    50    19    43    1
    51    20    44    1
    52    23    45    1
    53    24    46    1
    54    24    47    1
    55    25    48    1
    56    28    49    1
    57    32    50    1
