@<TRIPOS>MOLECULE
*****
 46 52 0 0 0
SMALL
GASTEIGER

@<TRIPOS>ATOM
      1 C          -4.6949   -1.9259   -2.6966 C.3     1  UNL1        0.0000
      2 C          -5.5907   -1.5684   -1.5453 C.2     1  UNL1        0.0000
      3 C          -4.8624   -0.9969   -0.5765 C.ar    1  UNL1        0.0000
      4 C          -5.3033   -0.4988    0.7033 C.ar    1  UNL1        0.0000
      5 C          -4.4064    0.0459    1.5473 C.ar    1  UNL1        0.0000
      6 C          -2.9885    0.1321    1.1659 C.ar    1  UNL1        0.0000
      7 C          -1.9878    0.6762    1.9729 C.ar    1  UNL1        0.0000
      8 C          -2.0885    1.2212    3.2271 C.ar    1  UNL1        0.0000
      9 O          -0.8563    1.6371    3.6524 O.2     1  UNL1        0.0000
     10 C           0.0403    1.3552    2.6591 C.ar    1  UNL1        0.0000
     11 C          -0.6080    0.7621    1.6065 C.ar    1  UNL1        0.0000
     12 C          -0.0714    0.3177    0.3949 C.ar    1  UNL1        0.0000
     13 C          -1.0661   -0.2437   -0.4455 C.ar    1  UNL1        0.0000
     14 C          -2.4581   -0.3363   -0.0879 C.ar    1  UNL1        0.0000
     15 C          -3.4634   -0.9290   -0.9920 C.ar    1  UNL1        0.0000
     16 C          -3.3465   -1.4630   -2.2187 C.2     1  UNL1        0.0000
     17 C           1.3481    0.4158    0.0653 C.ar    1  UNL1        0.0000
     18 C           1.7261    1.4015   -0.7848 C.ar    1  UNL1        0.0000
     19 C           3.1134    1.5753   -1.1703 C.ar    1  UNL1        0.0000
     20 C           3.6427    2.6332   -2.0903 C.3     1  UNL1        0.0000
     21 C           5.1136    2.3136   -2.1025 C.2     1  UNL1        0.0000
     22 C           5.3582    1.2524   -1.3172 C.2     1  UNL1        0.0000
     23 C           4.1209    0.7883   -0.7343 C.ar    1  UNL1        0.0000
     24 C           3.8068   -0.2971    0.1694 C.ar    1  UNL1        0.0000
     25 C           4.6791   -1.1788    0.6945 C.2     1  UNL1        0.0000
     26 SI          3.7998   -2.4043    1.7986 Si      1  UNL1        0.0000
     27 C           2.1909   -1.5340    1.4133 C.2     1  UNL1        0.0000
     28 C           2.3868   -0.4931    0.5783 C.ar    1  UNL1        0.0000
     29 H          -4.9926   -1.3967   -3.6065 H       1  UNL1        0.0000
     30 H          -4.6986   -3.0047   -2.8783 H       1  UNL1        0.0000
     31 H          -6.6537   -1.7516   -1.5200 H       1  UNL1        0.0000
     32 H          -6.3526   -0.5710    0.9669 H       1  UNL1        0.0000
     33 H          -4.7194    0.4250    2.5126 H       1  UNL1        0.0000
     34 H          -2.8954    1.3882    3.9260 H       1  UNL1        0.0000
     35 H           1.0650    1.6342    2.8624 H       1  UNL1        0.0000
     36 H          -0.7471   -0.6298   -1.4131 H       1  UNL1        0.0000
     37 H          -2.4415   -1.5602   -2.7970 H       1  UNL1        0.0000
     38 H           1.0058    2.1013   -1.1997 H       1  UNL1        0.0000
     39 H           3.4651    3.6382   -1.6955 H       1  UNL1        0.0000
     40 H           3.2162    2.5459   -3.0943 H       1  UNL1        0.0000
     41 H           5.8535    2.8639   -2.6636 H       1  UNL1        0.0000
     42 H           6.3212    0.8014   -1.1359 H       1  UNL1        0.0000
     43 H           5.7439   -1.2235    0.5342 H       1  UNL1        0.0000
     44 H           4.1943   -2.2646    3.2211 H       1  UNL1        0.0000
     45 H           3.8433   -3.7839    1.2564 H       1  UNL1        0.0000
     46 H           1.2581   -1.8704    1.8374 H       1  UNL1        0.0000
@<TRIPOS>BOND
     1     1     2    1
     2     2     3    2
     3     3     4   ar
     4     4     5   ar
     5     5     6   ar
     6     6     7   ar
     7     7     8   ar
     8     8     9   ar
     9     9    10   ar
    10    10    11   ar
    11    11    12   ar
    12    12    13   ar
    13    13    14   ar
    14    14    15   ar
    15    15    16    2
    16    12    17    1
    17    17    18   ar
    18    18    19   ar
    19    19    20    1
    20    20    21    1
    21    21    22    2
    22    22    23    1
    23    23    24   ar
    24    24    25    2
    25    25    26    1
    26    26    27    1
    27    27    28    2
    28    16     1    1
    29    28    17   ar
    30    15     3   ar
    31    23    19   ar
    32    28    24   ar
    33    14     6   ar
    34    11     7   ar
    35     1    29    1
    36     1    30    1
    37     2    31    1
    38     4    32    1
    39     5    33    1
    40     8    34    1
    41    10    35    1
    42    13    36    1
    43    16    37    1
    44    18    38    1
    45    20    39    1
    46    20    40    1
    47    21    41    1
    48    22    42    1
    49    25    43    1
    50    26    44    1
    51    26    45    1
    52    27    46    1
