@<TRIPOS>MOLECULE
*****
 45 52 0 0 0
SMALL
GASTEIGER

@<TRIPOS>ATOM
      1 C          -4.7356    1.6478    2.6501 C.3     1  UNL1       -0.0148
      2 C          -5.8163    1.3391    1.6533 C.2     1  UNL1       -0.0725
      3 C          -5.2657    0.8184    0.5482 C.ar    1  UNL1       -0.0211
      4 C          -5.9205    0.3770   -0.6608 C.ar    1  UNL1       -0.0537
      5 C          -5.1871   -0.1239   -1.6744 C.ar    1  UNL1       -0.0527
      6 C          -3.7214   -0.2232   -1.5552 C.ar    1  UNL1       -0.0030
      7 C          -2.8848   -0.7286   -2.5547 C.ar    1  UNL1        0.0284
      8 C          -3.2311   -1.2147   -3.7950 C.ar    1  UNL1        0.1000
      9 O          -2.1117   -1.6181   -4.4833 O.2     1  UNL1       -0.4698
     10 C          -1.0227   -1.3909   -3.6787 C.ar    1  UNL1        0.1001
     11 C          -1.4826   -0.8563   -2.5182 C.ar    1  UNL1        0.0318
     12 C          -0.8111   -0.4310   -1.3436 C.ar    1  UNL1        0.0407
     13 C           0.5350   -0.4163   -0.9821 C.ar    1  UNL1        0.0467
     14 C           1.7675   -0.7678   -1.5197 C.ar    1  UNL1        0.0396
     15 N           2.9005   -0.5789   -0.7954 N.ar    1  UNL1       -0.2536
     16 C           2.8476   -0.0471    0.4575 C.ar    1  UNL1        0.0817
     17 C           1.6571    0.3311    1.0686 C.ar    1  UNL1        0.0078
     18 C           0.5194    0.1245    0.3009 C.ar    1  UNL1        0.1398
     19 O          -0.7569    0.4222    0.6996 O.2     1  UNL1       -0.4540
     20 C          -1.6011    0.0769   -0.3267 C.ar    1  UNL1        0.1452
     21 C          -3.0078    0.1966   -0.3833 C.ar    1  UNL1        0.0331
     22 C          -3.8152    0.7403    0.7144 C.ar    1  UNL1       -0.0105
     23 C          -3.4908    1.2168    1.9267 C.2     1  UNL1       -0.0718
     24 C           4.1632    0.0887    1.0999 C.ar    1  UNL1        0.0468
     25 S           4.3631    0.7421    2.7141 S.2     1  UNL1       -0.0924
     26 C           6.0874    0.5695    2.7164 C.ar    1  UNL1        0.0002
     27 C           6.4467    0.0393    1.5325 C.ar    1  UNL1        0.0542
     28 N           7.7128   -0.2597    1.1213 N.ar    1  UNL1       -0.3602
     29 C           7.4706   -0.7671   -0.1531 C.ar    1  UNL1        0.0028
     30 C           6.0934   -0.7570   -0.4610 C.ar    1  UNL1       -0.0355
     31 C           5.4106   -0.2189    0.6638 C.ar    1  UNL1        0.0159
     32 H          -4.7064    2.7167    2.8808 H       1  UNL1        0.0350
     33 H          -4.8739    1.0743    3.5712 H       1  UNL1        0.0350
     34 H          -6.8675    1.5163    1.8199 H       1  UNL1        0.0581
     35 H          -6.9997    0.4562   -0.7340 H       1  UNL1        0.0624
     36 H          -5.6693   -0.4577   -2.5854 H       1  UNL1        0.0624
     37 H          -4.1615   -1.3446   -4.3298 H       1  UNL1        0.1036
     38 H          -0.0649   -1.6640   -4.0962 H       1  UNL1        0.1036
     39 H           1.8986   -1.1957   -2.5061 H       1  UNL1        0.0837
     40 H           1.5893    0.7546    2.0594 H       1  UNL1        0.0676
     41 H          -2.4985    1.2908    2.3435 H       1  UNL1        0.0581
     42 H           6.7017    0.8586    3.5572 H       1  UNL1        0.0714
     43 H           8.5803   -0.1355    1.6282 H       1  UNL1        0.1653
     44 H           8.3070   -1.1017   -0.7532 H       1  UNL1        0.0807
     45 H           5.6523   -1.0995   -1.3881 H       1  UNL1        0.0639
@<TRIPOS>BOND
     1     1     2    1
     2     2     3    2
     3     3     4   ar
     4     4     5   ar
     5     5     6   ar
     6     6     7   ar
     7     7     8   ar
     8     8     9   ar
     9     9    10   ar
    10    10    11   ar
    11    11    12   ar
    12    12    13   ar
    13    13    14   ar
    14    14    15   ar
    15    15    16   ar
    16    16    17   ar
    17    17    18   ar
    18    18    19   ar
    19    19    20   ar
    20    20    21   ar
    21    21    22   ar
    22    22    23    2
    23    16    24    1
    24    24    25   ar
    25    25    26   ar
    26    26    27   ar
    27    27    28   ar
    28    28    29   ar
    29    29    30   ar
    30    30    31   ar
    31    23     1    1
    32    31    24   ar
    33    22     3   ar
    34    31    27   ar
    35    21     6   ar
    36    11     7   ar
    37    20    12   ar
    38    18    13   ar
    39     1    32    1
    40     1    33    1
    41     2    34    1
    42     4    35    1
    43     5    36    1
    44     8    37    1
    45    10    38    1
    46    14    39    1
    47    17    40    1
    48    23    41    1
    49    26    42    1
    50    28    43    1
    51    29    44    1
    52    30    45    1
