@<TRIPOS>MOLECULE
*****
 40 46 0 0 0
SMALL
GASTEIGER

@<TRIPOS>ATOM
      1 C          -4.2922   -3.2196   -0.3908 C.3     1  UNL1       -0.0148
      2 C          -5.2698   -2.0901   -0.3118 C.2     1  UNL1       -0.0725
      3 C          -4.6018   -0.9336   -0.2061 C.ar    1  UNL1       -0.0212
      4 C          -5.1598    0.3898   -0.1051 C.ar    1  UNL1       -0.0537
      5 C          -4.3376    1.4483   -0.0054 C.ar    1  UNL1       -0.0527
      6 C          -2.8777    1.2603    0.0009 C.ar    1  UNL1       -0.0055
      7 C          -1.9775    2.3161    0.1015 C.ar    1  UNL1        0.0283
      8 C          -2.2518    3.6618    0.2083 C.ar    1  UNL1        0.1000
      9 O          -1.0884    4.3864    0.2855 O.2     1  UNL1       -0.4698
     10 C          -0.0479    3.4958    0.2276 C.ar    1  UNL1        0.1001
     11 C          -0.5801    2.2488    0.1169 C.ar    1  UNL1        0.0307
     12 C           0.0471    0.9673    0.0207 C.ar    1  UNL1        0.0265
     13 C           1.4413    0.7436    0.0233 C.ar    1  UNL1        0.0864
     14 N           2.4406    1.6647    0.1148 N.ar    1  UNL1       -0.2532
     15 C           3.6992    1.1718    0.0909 C.ar    1  UNL1        0.0366
     16 C           4.0549   -0.1691   -0.0187 C.ar    1  UNL1        0.0094
     17 C           3.0145   -1.0985   -0.1046 C.ar    1  UNL1       -0.0362
     18 C           1.6924   -0.6208   -0.0849 C.ar    1  UNL1        0.0394
     19 S           0.2395   -1.5294   -0.1823 S.2     1  UNL1       -0.0860
     20 C          -0.7959   -0.1409   -0.0834 C.ar    1  UNL1        0.0310
     21 C          -2.2312   -0.0230   -0.0954 C.ar    1  UNL1        0.0046
     22 C          -3.1545   -1.1810   -0.2050 C.ar    1  UNL1       -0.0130
     23 C          -2.9702   -2.5090   -0.3123 C.2     1  UNL1       -0.0719
     24 C           5.4500   -0.6158   -0.0267 C.ar    1  UNL1        0.0403
     25 C           6.0207   -1.7453    0.5373 C.ar    1  UNL1        0.0425
     26 N           7.3784   -1.9100    0.3401 N.ar    1  UNL1       -0.2551
     27 C           7.8325   -0.9080   -0.3773 C.ar    1  UNL1        0.0652
     28 S           6.6797    0.2678   -0.8477 S.2     1  UNL1       -0.0754
     29 H          -4.3909   -3.7630   -1.3350 H       1  UNL1        0.0350
     30 H          -4.4175   -3.9107    0.4478 H       1  UNL1        0.0350
     31 H          -6.3421   -2.2079   -0.3377 H       1  UNL1        0.0581
     32 H          -6.2372    0.5138   -0.1109 H       1  UNL1        0.0624
     33 H          -4.7474    2.4483    0.0711 H       1  UNL1        0.0624
     34 H          -3.1544    4.2553    0.2437 H       1  UNL1        0.1036
     35 H           0.9456    3.9185    0.2773 H       1  UNL1        0.1036
     36 H           4.4607    1.9445    0.1811 H       1  UNL1        0.0836
     37 H           3.2068   -2.1631   -0.1995 H       1  UNL1        0.0636
     38 H          -2.0400   -3.0487   -0.3433 H       1  UNL1        0.0581
     39 H           5.4876   -2.4906    1.1162 H       1  UNL1        0.0841
     40 H           8.8743   -0.8249   -0.6591 H       1  UNL1        0.0907
@<TRIPOS>BOND
     1     1     2    1
     2     2     3    2
     3     3     4   ar
     4     4     5   ar
     5     5     6   ar
     6     6     7   ar
     7     7     8   ar
     8     8     9   ar
     9     9    10   ar
    10    10    11   ar
    11    11    12   ar
    12    12    13   ar
    13    13    14   ar
    14    14    15   ar
    15    15    16   ar
    16    16    17   ar
    17    17    18   ar
    18    18    19   ar
    19    19    20   ar
    20    20    21   ar
    21    21    22   ar
    22    22    23    2
    23    16    24    1
    24    24    25   ar
    25    25    26   ar
    26    26    27   ar
    27    27    28   ar
    28    23     1    1
    29    28    24   ar
    30    22     3   ar
    31    21     6   ar
    32    11     7   ar
    33    20    12   ar
    34    18    13   ar
    35     1    29    1
    36     1    30    1
    37     2    31    1
    38     4    32    1
    39     5    33    1
    40     8    34    1
    41    10    35    1
    42    15    36    1
    43    17    37    1
    44    23    38    1
    45    25    39    1
    46    27    40    1
