@<TRIPOS>MOLECULE
*****
 40 46 0 0 0
SMALL
GASTEIGER

@<TRIPOS>ATOM
      1 C          -4.9033    2.6354   -0.2978 C.3     1  UNL1       -0.0148
      2 C          -5.5742    1.3677    0.1352 C.2     1  UNL1       -0.0725
      3 C          -4.6446    0.4288    0.3596 C.ar    1  UNL1       -0.0211
      4 C          -4.8541   -0.9278    0.7887 C.ar    1  UNL1       -0.0537
      5 C          -3.7927   -1.7327    0.9633 C.ar    1  UNL1       -0.0527
      6 C          -2.4314   -1.2328    0.7187 C.ar    1  UNL1       -0.0045
      7 C          -1.2952   -2.0223    0.8838 C.ar    1  UNL1        0.0284
      8 C          -1.1973   -3.3321    1.2780 C.ar    1  UNL1        0.1000
      9 O           0.1165   -3.7093    1.3050 O.2     1  UNL1       -0.4698
     10 C           0.8617   -2.6279    0.9240 C.ar    1  UNL1        0.1002
     11 C           0.0327   -1.5690    0.6558 C.ar    1  UNL1        0.0332
     12 C           0.3594   -0.2781    0.2388 C.ar    1  UNL1        0.0545
     13 C           1.6337    0.2180    0.0014 C.ar    1  UNL1        0.1471
     14 O           2.8147   -0.4453    0.1252 O.2     1  UNL1       -0.4520
     15 C           3.8354    0.4147   -0.2065 C.ar    1  UNL1        0.1612
     16 C           3.2732    1.6391   -0.5436 C.ar    1  UNL1       -0.0045
     17 C           1.8652    1.5163   -0.4115 C.ar    1  UNL1        0.0396
     18 C           0.7624    2.3417   -0.5900 C.ar    1  UNL1        0.0391
     19 N          -0.4941    1.8682   -0.3606 N.ar    1  UNL1       -0.2535
     20 C          -0.7490    0.5983    0.0452 C.ar    1  UNL1        0.0835
     21 C          -2.0995    0.1146    0.2842 C.ar    1  UNL1        0.0163
     22 C          -3.3091    0.9728    0.1032 C.ar    1  UNL1       -0.0120
     23 C          -3.4523    2.2541   -0.2790 C.2     1  UNL1       -0.0719
     24 C           5.2165    0.0059   -0.1737 C.ar    1  UNL1        0.1433
     25 N           5.5763   -1.2131    0.1756 N.ar    1  UNL1       -0.2442
     26 C           6.9503   -1.3341    0.1208 C.ar    1  UNL1        0.0356
     27 C           7.6307   -0.2029   -0.2712 C.ar    1  UNL1       -0.0041
     28 S           6.5152    1.0594   -0.5833 S.2     1  UNL1       -0.0727
     29 H          -5.2212    2.9271   -1.3030 H       1  UNL1        0.0350
     30 H          -5.1060    3.4493    0.4045 H       1  UNL1        0.0350
     31 H          -6.6410    1.2487    0.2435 H       1  UNL1        0.0581
     32 H          -5.8642   -1.2806    0.9646 H       1  UNL1        0.0624
     33 H          -3.9344   -2.7572    1.2862 H       1  UNL1        0.0624
     34 H          -1.9006   -4.1022    1.5609 H       1  UNL1        0.1036
     35 H           1.9317   -2.7873    0.9008 H       1  UNL1        0.1036
     36 H           3.8144    2.5235   -0.8506 H       1  UNL1        0.0663
     37 H           0.8324    3.3750   -0.9110 H       1  UNL1        0.0837
     38 H          -2.6627    2.9399   -0.5419 H       1  UNL1        0.0581
     39 H           7.4084   -2.2810    0.3802 H       1  UNL1        0.0835
     40 H           8.6959   -0.0630   -0.3853 H       1  UNL1        0.0709
@<TRIPOS>BOND
     1     1     2    1
     2     2     3    2
     3     3     4   ar
     4     4     5   ar
     5     5     6   ar
     6     6     7   ar
     7     7     8   ar
     8     8     9   ar
     9     9    10   ar
    10    10    11   ar
    11    11    12   ar
    12    12    13   ar
    13    13    14   ar
    14    14    15   ar
    15    15    16   ar
    16    16    17   ar
    17    17    18   ar
    18    18    19   ar
    19    19    20   ar
    20    20    21   ar
    21    21    22   ar
    22    22    23    2
    23    15    24    1
    24    24    25   ar
    25    25    26   ar
    26    26    27   ar
    27    27    28   ar
    28    23     1    1
    29    28    24   ar
    30    22     3   ar
    31    21     6   ar
    32    11     7   ar
    33    20    12   ar
    34    17    13   ar
    35     1    29    1
    36     1    30    1
    37     2    31    1
    38     4    32    1
    39     5    33    1
    40     8    34    1
    41    10    35    1
    42    16    36    1
    43    18    37    1
    44    23    38    1
    45    26    39    1
    46    27    40    1
