@<TRIPOS>MOLECULE
*****
 46 53 0 0 0
SMALL
GASTEIGER

@<TRIPOS>ATOM
      1 C          -4.5745    2.8126    1.7116 C.3     1  UNL1       -0.0148
      2 C          -5.5256    2.1537    0.7643 C.2     1  UNL1       -0.0725
      3 C          -4.8797    1.1890    0.0956 C.ar    1  UNL1       -0.0212
      4 C          -5.4585    0.2140   -0.7865 C.ar    1  UNL1       -0.0537
      5 C          -4.6966   -0.8073   -1.2095 C.ar    1  UNL1       -0.0527
      6 C          -3.2724   -0.8758   -0.8444 C.ar    1  UNL1       -0.0059
      7 C          -2.4601   -1.9488   -1.2024 C.ar    1  UNL1        0.0282
      8 C          -2.8206   -3.1113   -1.8369 C.ar    1  UNL1        0.1000
      9 O          -1.7283   -3.9148   -1.9888 O.2     1  UNL1       -0.4698
     10 C          -0.6613   -3.2555   -1.4510 C.ar    1  UNL1        0.1000
     11 C          -1.0615   -2.0394   -0.9512 C.ar    1  UNL1        0.0282
     12 C          -0.2638   -1.0384   -0.3548 C.ar    1  UNL1       -0.0038
     13 C           1.1478   -1.1966   -0.1849 C.ar    1  UNL1       -0.0434
     14 C           1.9809   -0.1848    0.3093 C.ar    1  UNL1        0.0116
     15 C           3.4076   -0.3695    0.4867 C.ar    1  UNL1       -0.0050
     16 C           3.9945   -1.2882    1.4012 C.ar    1  UNL1       -0.0533
     17 C           5.4136   -1.4930    1.5605 C.ar    1  UNL1       -0.0605
     18 C           6.4046   -0.8113    0.8184 C.ar    1  UNL1       -0.0510
     19 C           5.8115    0.0706   -0.0735 C.ar    1  UNL1        0.0204
     20 C           6.4499    0.8889   -0.9658 C.ar    1  UNL1        0.0994
     21 O           5.5211    1.5948   -1.6808 O.2     1  UNL1       -0.4698
     22 C           4.2827    1.2222   -1.2309 C.ar    1  UNL1        0.1000
     23 C           4.4102    0.2858   -0.2361 C.ar    1  UNL1        0.0276
     24 C           1.3266    1.0429    0.5925 C.ar    1  UNL1        0.1082
     25 N           1.9328    2.1619    1.0289 N.ar    1  UNL1       -0.1901
     26 S           0.7852    3.3404    1.1118 S.2     1  UNL1        0.1165
     27 N          -0.5441    2.4915    0.6383 N.ar    1  UNL1       -0.1901
     28 C          -0.1841    1.2139    0.4219 C.ar    1  UNL1        0.1088
     29 C          -1.0609    0.1278    0.0062 C.ar    1  UNL1        0.0193
     30 C          -2.5423    0.1487   -0.1300 C.ar    1  UNL1        0.0000
     31 C          -3.4610    1.1646    0.4707 C.ar    1  UNL1       -0.0134
     32 C          -3.3048    2.0492    1.4713 C.2     1  UNL1       -0.0719
     33 H          -4.4495    3.8745    1.4811 H       1  UNL1        0.0350
     34 H          -4.9099    2.6962    2.7464 H       1  UNL1        0.0350
     35 H          -6.5795    2.3769    0.7051 H       1  UNL1        0.0581
     36 H          -6.5065    0.2873   -1.0538 H       1  UNL1        0.0624
     37 H          -5.1213   -1.5693   -1.8519 H       1  UNL1        0.0624
     38 H          -3.7450   -3.5184   -2.2214 H       1  UNL1        0.1036
     39 H           0.2790   -3.7842   -1.5191 H       1  UNL1        0.1036
     40 H           1.6175   -2.1389   -0.4688 H       1  UNL1        0.0631
     41 H           3.3343   -1.8782    2.0399 H       1  UNL1        0.0624
     42 H           5.7391   -2.2222    2.3040 H       1  UNL1        0.0618
     43 H           7.4654   -0.9732    0.9434 H       1  UNL1        0.0625
     44 H           7.4813    1.0863   -1.2203 H       1  UNL1        0.1035
     45 H           3.4501    1.7132   -1.7141 H       1  UNL1        0.1036
     46 H          -2.4236    2.2123    2.0676 H       1  UNL1        0.0581
@<TRIPOS>BOND
     1     1     2    1
     2     2     3    2
     3     3     4   ar
     4     4     5   ar
     5     5     6   ar
     6     6     7   ar
     7     7     8   ar
     8     8     9   ar
     9     9    10   ar
    10    10    11   ar
    11    11    12   ar
    12    12    13   ar
    13    13    14   ar
    14    14    15    1
    15    15    16   ar
    16    16    17   ar
    17    17    18   ar
    18    18    19   ar
    19    19    20   ar
    20    20    21   ar
    21    21    22   ar
    22    22    23   ar
    23    14    24   ar
    24    24    25   ar
    25    25    26   ar
    26    26    27   ar
    27    27    28   ar
    28    28    29   ar
    29    29    30   ar
    30    30    31   ar
    31    31    32    2
    32    32     1    1
    33    31     3   ar
    34    30     6   ar
    35    11     7   ar
    36    29    12   ar
    37    23    15   ar
    38    28    24   ar
    39    23    19   ar
    40     1    33    1
    41     1    34    1
    42     2    35    1
    43     4    36    1
    44     5    37    1
    45     8    38    1
    46    10    39    1
    47    13    40    1
    48    16    41    1
    49    17    42    1
    50    18    43    1
    51    20    44    1
    52    22    45    1
    53    32    46    1
