@<TRIPOS>MOLECULE
*****
 45 52 0 0 0
SMALL
GASTEIGER

@<TRIPOS>ATOM
      1 C          -4.0337    3.4840   -0.1628 C.3     1  UNL1       -0.0148
      2 C          -5.1815    2.5643    0.1013 C.2     1  UNL1       -0.0725
      3 C          -4.7181    1.3195    0.2737 C.ar    1  UNL1       -0.0211
      4 C          -5.4868    0.1298    0.5189 C.ar    1  UNL1       -0.0537
      5 C          -4.8567   -1.0518    0.6351 C.ar    1  UNL1       -0.0528
      6 C          -3.3839   -1.1467    0.5306 C.ar    1  UNL1       -0.0071
      7 C          -2.6782   -2.3541    0.6534 C.ar    1  UNL1       -0.0024
      8 C          -3.2940   -3.5724    0.8677 C.ar    1  UNL1       -0.0160
      9 S          -2.1781   -4.8718    0.9946 S.2     1  UNL1       -0.1038
     10 C          -0.8384   -3.8204    0.7648 C.ar    1  UNL1       -0.0159
     11 C          -1.2612   -2.5354    0.5846 C.ar    1  UNL1       -0.0005
     12 C          -0.4528   -1.3557    0.3665 C.ar    1  UNL1        0.0184
     13 C          -1.1396   -0.1383    0.2624 C.ar    1  UNL1        0.0565
     14 N          -0.1437    0.8100    0.1314 N.ar    1  UNL1       -0.3536
     15 C           1.1152    0.2493    0.0876 C.ar    1  UNL1        0.0503
     16 C           2.3596    0.8888   -0.0581 C.ar    1  UNL1       -0.0265
     17 C           3.5438    0.1325   -0.0777 C.ar    1  UNL1        0.0284
     18 C           4.8576    0.7536   -0.2221 C.ar    1  UNL1        0.0487
     19 C           6.0666    0.4751    0.3950 C.ar    1  UNL1       -0.0364
     20 C           7.0372    1.3812   -0.0950 C.ar    1  UNL1       -0.0438
     21 C           6.4090    2.1919   -1.0097 C.ar    1  UNL1        0.0022
     22 N           5.0980    1.8023   -1.0858 N.ar    1  UNL1       -0.3606
     23 C           3.4003   -1.2763    0.0490 C.ar    1  UNL1        0.1097
     24 N           4.3913   -2.1959    0.0355 N.ar    1  UNL1       -0.1901
     25 S           3.6863   -3.6938    0.1906 S.2     1  UNL1        0.1165
     26 N           2.0817   -3.2599    0.2842 N.ar    1  UNL1       -0.1901
     27 C           2.1003   -1.9418    0.2017 C.ar    1  UNL1        0.1102
     28 C           0.9212   -1.1156    0.2295 C.ar    1  UNL1        0.0362
     29 C          -2.5540   -0.0006    0.3144 C.ar    1  UNL1        0.0140
     30 C          -3.2562    1.2972    0.1568 C.ar    1  UNL1       -0.0121
     31 C          -2.8525    2.5526   -0.1117 C.2     1  UNL1       -0.0719
     32 H          -3.9585    4.2567    0.6079 H       1  UNL1        0.0350
     33 H          -4.1211    3.9522   -1.1476 H       1  UNL1        0.0350
     34 H          -6.2163    2.8691    0.1293 H       1  UNL1        0.0581
     35 H          -6.5661    0.2002    0.5978 H       1  UNL1        0.0624
     36 H          -5.4427   -1.9436    0.8150 H       1  UNL1        0.0624
     37 H          -4.3433   -3.8064    0.9656 H       1  UNL1        0.0700
     38 H           0.1413   -4.2582    0.7934 H       1  UNL1        0.0700
     39 H          -0.3039    1.8014    0.0861 H       1  UNL1        0.1659
     40 H           2.4041    1.9728   -0.1333 H       1  UNL1        0.0645
     41 H           6.2323   -0.3045    1.1287 H       1  UNL1        0.0639
     42 H           8.0812    1.4289    0.1862 H       1  UNL1        0.0633
     43 H           6.7827    3.0038   -1.6189 H       1  UNL1        0.0807
     44 H           4.4108    2.2091   -1.7053 H       1  UNL1        0.1653
     45 H          -1.8592    2.9168   -0.2920 H       1  UNL1        0.0581
@<TRIPOS>BOND
     1     1     2    1
     2     2     3    2
     3     3     4   ar
     4     4     5   ar
     5     5     6   ar
     6     6     7   ar
     7     7     8   ar
     8     8     9   ar
     9     9    10   ar
    10    10    11   ar
    11    11    12   ar
    12    12    13   ar
    13    13    14   ar
    14    14    15   ar
    15    15    16   ar
    16    16    17   ar
    17    17    18    1
    18    18    19   ar
    19    19    20   ar
    20    20    21   ar
    21    21    22   ar
    22    17    23   ar
    23    23    24   ar
    24    24    25   ar
    25    25    26   ar
    26    26    27   ar
    27    27    28   ar
    28    13    29   ar
    29    29    30   ar
    30    30    31    2
    31    31     1    1
    32    30     3   ar
    33    29     6   ar
    34    11     7   ar
    35    28    12   ar
    36    28    15   ar
    37    22    18   ar
    38    27    23   ar
    39     1    32    1
    40     1    33    1
    41     2    34    1
    42     4    35    1
    43     5    36    1
    44     8    37    1
    45    10    38    1
    46    14    39    1
    47    16    40    1
    48    19    41    1
    49    20    42    1
    50    21    43    1
    51    22    44    1
    52    31    45    1
