@<TRIPOS>MOLECULE
*****
 46 53 0 0 0
SMALL
GASTEIGER

@<TRIPOS>ATOM
      1 C          -3.8497   -4.6026   -1.6946 C.3     1  UNL1        0.0000
      2 C          -4.9200   -3.7296   -2.2699 C.2     1  UNL1        0.0000
      3 C          -4.5727   -2.4449   -2.1132 C.ar    1  UNL1        0.0000
      4 C          -5.3135   -1.2874   -2.5224 C.ar    1  UNL1        0.0000
      5 C          -4.8047   -0.0690   -2.2804 C.ar    1  UNL1        0.0000
      6 C          -3.5013    0.0955   -1.6027 C.ar    1  UNL1        0.0000
      7 C          -2.9402    1.3506   -1.3339 C.ar    1  UNL1        0.0000
      8 C          -3.5382    2.5459   -1.6698 C.ar    1  UNL1        0.0000
      9 S          -2.5966    3.8931   -1.2045 S.2     1  UNL1        0.0000
     10 C          -1.3785    2.8808   -0.5484 C.ar    1  UNL1        0.0000
     11 C          -1.6643    1.5391   -0.6705 C.ar    1  UNL1        0.0000
     12 C          -0.8253    0.4613   -0.2104 C.ar    1  UNL1        0.0000
     13 C           0.4413    0.4996    0.4523 C.ar    1  UNL1        0.0000
     14 SI          1.5632    1.9138    1.0140 Si      1  UNL1        0.0000
     15 C           2.7915    0.6779    1.6712 C.2     1  UNL1        0.0000
     16 C           2.3892   -0.5925    1.4943 C.2     1  UNL1        0.0000
     17 C           1.0898   -0.7007    0.8136 C.ar    1  UNL1        0.0000
     18 C           0.4686   -1.8834    0.5110 C.ar    1  UNL1        0.0000
     19 N          -0.7268   -1.9491   -0.1129 N.ar    1  UNL1        0.0000
     20 C          -1.4017   -0.8373   -0.4872 C.ar    1  UNL1        0.0000
     21 C          -2.6753   -0.9985   -1.1500 C.ar    1  UNL1        0.0000
     22 C          -3.2773   -2.3447   -1.4388 C.ar    1  UNL1        0.0000
     23 C          -2.8541   -3.5989   -1.1941 C.2     1  UNL1        0.0000
     24 C           3.9841    1.0427    2.3206 C.ar    1  UNL1        0.0000
     25 S           4.2412    0.8341    4.0177 S.2     1  UNL1        0.0000
     26 C           5.8295    1.4974    3.9611 C.ar    1  UNL1        0.0000
     27 C           6.0958    1.8307    2.6792 C.ar    1  UNL1        0.0000
     28 C           7.2256    2.3960    2.0415 C.ar    1  UNL1        0.0000
     29 C           7.0372    2.5528    0.6636 C.ar    1  UNL1        0.0000
     30 S           5.4848    2.0299    0.0232 S.2     1  UNL1        0.0000
     31 C           5.0971    1.5904    1.7349 C.ar    1  UNL1        0.0000
     32 H          -4.2370   -5.2160   -0.8759 H       1  UNL1        0.0000
     33 H          -3.4092   -5.2460   -2.4618 H       1  UNL1        0.0000
     34 H          -5.8223   -4.0957   -2.7341 H       1  UNL1        0.0000
     35 H          -6.2691   -1.4124   -3.0191 H       1  UNL1        0.0000
     36 H          -5.3672    0.8018   -2.5912 H       1  UNL1        0.0000
     37 H          -4.4795    2.7321   -2.1655 H       1  UNL1        0.0000
     38 H          -0.5331    3.3861   -0.1178 H       1  UNL1        0.0000
     39 H           2.0563    2.7052   -0.1415 H       1  UNL1        0.0000
     40 H           0.9203    2.7299    2.0757 H       1  UNL1        0.0000
     41 H           2.9377   -1.4710    1.8096 H       1  UNL1        0.0000
     42 H           0.9090   -2.8438    0.7598 H       1  UNL1        0.0000
     43 H          -1.9359   -3.8890   -0.7094 H       1  UNL1        0.0000
     44 H           6.4389    1.5866    4.8492 H       1  UNL1        0.0000
     45 H           8.1450    2.6812    2.5382 H       1  UNL1        0.0000
     46 H           7.7476    2.9584   -0.0441 H       1  UNL1        0.0000
@<TRIPOS>BOND
     1     1     2    1
     2     2     3    2
     3     3     4   ar
     4     4     5   ar
     5     5     6   ar
     6     6     7   ar
     7     7     8   ar
     8     8     9   ar
     9     9    10   ar
    10    10    11   ar
    11    11    12   ar
    12    12    13   ar
    13    13    14    1
    14    14    15    1
    15    15    16    2
    16    16    17    1
    17    17    18   ar
    18    18    19   ar
    19    19    20   ar
    20    20    21   ar
    21    21    22   ar
    22    22    23    2
    23    15    24    1
    24    24    25   ar
    25    25    26   ar
    26    26    27   ar
    27    27    28   ar
    28    28    29   ar
    29    29    30   ar
    30    30    31   ar
    31    23     1    1
    32    31    24   ar
    33    22     3   ar
    34    31    27   ar
    35    21     6   ar
    36    11     7   ar
    37    20    12   ar
    38    17    13   ar
    39     1    32    1
    40     1    33    1
    41     2    34    1
    42     4    35    1
    43     5    36    1
    44     8    37    1
    45    10    38    1
    46    14    39    1
    47    14    40    1
    48    16    41    1
    49    18    42    1
    50    23    43    1
    51    26    44    1
    52    28    45    1
    53    29    46    1
