@<TRIPOS>MOLECULE
*****
 49 56 0 0 0
SMALL
GASTEIGER

@<TRIPOS>ATOM
      1 SI         -1.1563    0.4338   -3.6480 Si      1  UNL1        0.0000
      2 C          -2.2406    0.5635   -2.1428 C.2     1  UNL1        0.0000
      3 C          -1.5410    0.3477   -1.0091 C.ar    1  UNL1        0.0000
      4 C          -2.1412    0.1835    0.3105 C.ar    1  UNL1        0.0000
      5 C          -1.3554   -0.2387    1.3220 C.ar    1  UNL1        0.0000
      6 C           0.0997   -0.4592    1.1595 C.ar    1  UNL1        0.0000
      7 C           0.8298   -0.9712    2.2290 C.ar    1  UNL1        0.0000
      8 N           2.1670   -1.1436    2.2355 N.ar    1  UNL1        0.0000
      9 C           2.8370   -0.6789    1.1513 C.ar    1  UNL1        0.0000
     10 C           4.2431   -0.8266    1.2830 C.ar    1  UNL1        0.0000
     11 N           5.0141   -1.4022    2.2727 N.ar    1  UNL1        0.0000
     12 C           6.3547   -1.2915    1.9621 C.ar    1  UNL1        0.0000
     13 C           6.4758   -0.6189    0.7604 C.ar    1  UNL1        0.0000
     14 C           5.1651   -0.3551    0.3742 C.ar    1  UNL1        0.0000
     15 C           4.6434    0.3515   -0.7297 C.ar    1  UNL1        0.0000
     16 C           5.3163    1.0214   -1.7047 C.ar    1  UNL1        0.0000
     17 N           4.3273    1.6338   -2.4404 N.ar    1  UNL1        0.0000
     18 C           3.0823    1.3449   -1.9020 C.ar    1  UNL1        0.0000
     19 C           3.2422    0.4601   -0.8543 C.ar    1  UNL1        0.0000
     20 C           2.2251   -0.0814    0.0048 C.ar    1  UNL1        0.0000
     21 C           0.7924   -0.1081   -0.0272 C.ar    1  UNL1        0.0000
     22 C          -0.0804    0.1490   -1.2059 C.ar    1  UNL1        0.0000
     23 C           0.2689    0.0483   -2.5054 C.2     1  UNL1        0.0000
     24 C          -3.5539    0.4148    0.6158 C.ar    1  UNL1        0.0000
     25 C          -4.0709    1.6494    1.0754 C.ar    1  UNL1        0.0000
     26 C          -5.4554    1.8721    1.3672 C.ar    1  UNL1        0.0000
     27 C          -6.4600    0.8890    1.2279 C.ar    1  UNL1        0.0000
     28 C          -5.9439   -0.3242    0.7701 C.ar    1  UNL1        0.0000
     29 C          -6.7322   -1.4272    0.5540 C.ar    1  UNL1        0.0000
     30 S          -5.8005   -2.7569   -0.0113 S.2     1  UNL1        0.0000
     31 C          -4.3387   -1.8515    0.0355 C.ar    1  UNL1        0.0000
     32 C          -4.5521   -0.5643    0.4724 C.ar    1  UNL1        0.0000
     33 H          -0.9788    1.7324   -4.3425 H       1  UNL1        0.0000
     34 H          -1.5133   -0.7142   -4.5155 H       1  UNL1        0.0000
     35 H          -3.3076    0.6920   -2.2381 H       1  UNL1        0.0000
     36 H          -1.7681   -0.3972    2.3154 H       1  UNL1        0.0000
     37 H           0.3385   -1.2748    3.1501 H       1  UNL1        0.0000
     38 H           4.6205   -1.8358    3.0974 H       1  UNL1        0.0000
     39 H           7.1023   -1.6935    2.6325 H       1  UNL1        0.0000
     40 H           7.3975   -0.3598    0.2585 H       1  UNL1        0.0000
     41 H           6.3646    1.1641   -1.9259 H       1  UNL1        0.0000
     42 H           4.4866    2.2554   -3.2226 H       1  UNL1        0.0000
     43 H           2.2121    1.8322   -2.3165 H       1  UNL1        0.0000
     44 H           1.2253   -0.2304   -2.9149 H       1  UNL1        0.0000
     45 H          -3.3811    2.4829    1.2143 H       1  UNL1        0.0000
     46 H          -5.7486    2.8629    1.7167 H       1  UNL1        0.0000
     47 H          -7.5008    1.0800    1.4536 H       1  UNL1        0.0000
     48 H          -7.7990   -1.5373    0.6912 H       1  UNL1        0.0000
     49 H          -3.4121   -2.3223   -0.2639 H       1  UNL1        0.0000
@<TRIPOS>BOND
     1     1     2    1
     2     2     3    2
     3     3     4   ar
     4     4     5   ar
     5     5     6   ar
     6     6     7   ar
     7     7     8   ar
     8     8     9   ar
     9     9    10   ar
    10    10    11   ar
    11    11    12   ar
    12    12    13   ar
    13    13    14   ar
    14    14    15   ar
    15    15    16   ar
    16    16    17   ar
    17    17    18   ar
    18    18    19   ar
    19    19    20   ar
    20    20    21   ar
    21    21    22   ar
    22    22    23    2
    23     4    24    1
    24    24    25   ar
    25    25    26   ar
    26    26    27   ar
    27    27    28   ar
    28    28    29   ar
    29    29    30   ar
    30    30    31   ar
    31    31    32   ar
    32    23     1    1
    33    32    24   ar
    34    22     3   ar
    35    32    28   ar
    36    21     6   ar
    37    20     9   ar
    38    14    10   ar
    39    19    15   ar
    40     1    33    1
    41     1    34    1
    42     2    35    1
    43     5    36    1
    44     7    37    1
    45    11    38    1
    46    12    39    1
    47    13    40    1
    48    16    41    1
    49    17    42    1
    50    18    43    1
    51    23    44    1
    52    25    45    1
    53    26    46    1
    54    27    47    1
    55    29    48    1
    56    31    49    1
