@<TRIPOS>MOLECULE
*****
 47 54 0 0 0
SMALL
GASTEIGER

@<TRIPOS>ATOM
      1 C          -4.8296    2.8918   -1.7621 C.3     1  UNL1       -0.0148
      2 C          -5.8985    1.8896   -1.4670 C.2     1  UNL1       -0.0725
      3 C          -5.3387    0.7914   -0.9426 C.ar    1  UNL1       -0.0212
      4 C          -6.0165   -0.3511   -0.4018 C.ar    1  UNL1       -0.0537
      5 C          -5.2983   -1.2907    0.2337 C.ar    1  UNL1       -0.0528
      6 C          -3.8262   -1.1956    0.3233 C.ar    1  UNL1       -0.0084
      7 C          -3.0408   -2.1481    0.9875 C.ar    1  UNL1       -0.0025
      8 C          -3.5620   -3.2212    1.6777 C.ar    1  UNL1       -0.0160
      9 S          -2.3426   -4.2395    2.3062 S.2     1  UNL1       -0.1038
     10 C          -1.1057   -3.2513    1.6492 C.ar    1  UNL1       -0.0160
     11 C          -1.5887   -2.1160    1.0343 C.ar    1  UNL1       -0.0018
     12 C          -0.7679   -1.1201    0.3934 C.ar    1  UNL1        0.0030
     13 C           0.6826   -0.9561    0.4187 C.ar    1  UNL1        0.0268
     14 C           1.6058   -1.5711    1.2819 C.ar    1  UNL1        0.0380
     15 N           2.9490   -1.4067    1.2538 N.ar    1  UNL1       -0.2536
     16 C           3.4396   -0.5657    0.3279 C.ar    1  UNL1        0.0816
     17 C           2.6216    0.1289   -0.5425 C.ar    1  UNL1       -0.0091
     18 C           1.2521   -0.0479   -0.4839 C.ar    1  UNL1        0.0751
     19 N           0.5170    0.6841   -1.3173 N.ar    1  UNL1       -0.2542
     20 C          -0.8341    0.5923   -1.2371 C.ar    1  UNL1        0.0366
     21 C          -1.5795   -0.2171   -0.3765 C.ar    1  UNL1        0.0098
     22 C          -3.0429   -0.1758   -0.3220 C.ar    1  UNL1       -0.0007
     23 C          -3.8810    0.9290   -0.8957 C.ar    1  UNL1       -0.0134
     24 C          -3.5868    2.1759   -1.3112 C.2     1  UNL1       -0.0719
     25 C           4.8815   -0.4102    0.3240 C.ar    1  UNL1        0.0614
     26 S           5.9686   -1.7558    0.1847 S.2     1  UNL1       -0.0924
     27 C           7.3890   -0.7517    0.2086 C.ar    1  UNL1       -0.0145
     28 C           6.9800    0.5269    0.3327 C.ar    1  UNL1        0.0073
     29 C           7.4936    1.8422    0.4325 C.ar    1  UNL1       -0.0361
     30 C           6.3871    2.7084    0.5616 C.ar    1  UNL1        0.0028
     31 N           5.1811    2.0091    0.5518 N.ar    1  UNL1       -0.3597
     32 C           5.6177    0.7219    0.4024 C.ar    1  UNL1        0.0629
     33 H          -4.9824    3.8095   -1.1864 H       1  UNL1        0.0350
     34 H          -4.7855    3.1279   -2.8291 H       1  UNL1        0.0350
     35 H          -6.9548    2.0680   -1.5973 H       1  UNL1        0.0581
     36 H          -7.0959   -0.4207   -0.4784 H       1  UNL1        0.0624
     37 H          -5.8118   -2.1440    0.6579 H       1  UNL1        0.0624
     38 H          -4.5920   -3.4973    1.8494 H       1  UNL1        0.0700
     39 H          -0.0996   -3.6203    1.7549 H       1  UNL1        0.0700
     40 H           1.2922   -2.2039    2.1029 H       1  UNL1        0.0836
     41 H           3.0411    0.8079   -1.2779 H       1  UNL1        0.0660
     42 H          -1.3153    1.2012   -1.9954 H       1  UNL1        0.0836
     43 H          -2.6286    2.6686   -1.3103 H       1  UNL1        0.0581
     44 H           8.3813   -1.1727    0.1396 H       1  UNL1        0.0700
     45 H           8.5308    2.1500    0.4221 H       1  UNL1        0.0639
     46 H           6.3655    3.7855    0.6692 H       1  UNL1        0.0807
     47 H           4.2287    2.3406    0.6453 H       1  UNL1        0.1654
@<TRIPOS>BOND
     1     1     2    1
     2     2     3    2
     3     3     4   ar
     4     4     5   ar
     5     5     6   ar
     6     6     7   ar
     7     7     8   ar
     8     8     9   ar
     9     9    10   ar
    10    10    11   ar
    11    11    12   ar
    12    12    13   ar
    13    13    14   ar
    14    14    15   ar
    15    15    16   ar
    16    16    17   ar
    17    17    18   ar
    18    18    19   ar
    19    19    20   ar
    20    20    21   ar
    21    21    22   ar
    22    22    23   ar
    23    23    24    2
    24    16    25    1
    25    25    26   ar
    26    26    27   ar
    27    27    28   ar
    28    28    29   ar
    29    29    30   ar
    30    30    31   ar
    31    31    32   ar
    32    24     1    1
    33    32    25   ar
    34    23     3   ar
    35    32    28   ar
    36    22     6   ar
    37    11     7   ar
    38    21    12   ar
    39    18    13   ar
    40     1    33    1
    41     1    34    1
    42     2    35    1
    43     4    36    1
    44     5    37    1
    45     8    38    1
    46    10    39    1
    47    14    40    1
    48    17    41    1
    49    20    42    1
    50    24    43    1
    51    27    44    1
    52    29    45    1
    53    30    46    1
    54    31    47    1
