@<TRIPOS>MOLECULE
*****
 42 49 0 0 0
SMALL
GASTEIGER

@<TRIPOS>ATOM
      1 C          -5.7922    2.2927   -0.1126 C.3     1  UNL1       -0.0148
      2 C          -6.3215    0.8992   -0.2382 C.2     1  UNL1       -0.0725
      3 C          -5.2961    0.0370   -0.2508 C.ar    1  UNL1       -0.0212
      4 C          -5.3617   -1.3952   -0.3569 C.ar    1  UNL1       -0.0537
      5 C          -4.2251   -2.1126   -0.3539 C.ar    1  UNL1       -0.0528
      6 C          -2.9051   -1.4545   -0.2432 C.ar    1  UNL1       -0.0080
      7 C          -1.6953   -2.1774   -0.2371 C.ar    1  UNL1       -0.0024
      8 C          -1.5950   -3.5515   -0.3310 C.ar    1  UNL1       -0.0160
      9 S           0.0402   -4.1073   -0.2925 S.2     1  UNL1       -0.1038
     10 C           0.6547   -2.5087   -0.1482 C.ar    1  UNL1       -0.0159
     11 C          -0.3895   -1.6296   -0.1352 C.ar    1  UNL1        0.0015
     12 C          -0.3255   -0.2099   -0.0302 C.ar    1  UNL1        0.0409
     13 C           0.8801    0.4704    0.0764 C.ar    1  UNL1        0.1510
     14 O           2.1992    0.1413    0.1158 O.2     1  UNL1       -0.4531
     15 C           2.8938    1.3242    0.2339 C.ar    1  UNL1        0.1444
     16 C           2.0118    2.3925    0.2685 C.ar    1  UNL1       -0.0009
     17 C           0.7276    1.8082    0.1651 C.ar    1  UNL1        0.0591
     18 S          -0.9501    2.2553    0.1170 S.2     1  UNL1       -0.0843
     19 C          -1.4666    0.5793   -0.0282 C.ar    1  UNL1        0.0324
     20 C          -2.7607   -0.0188   -0.1332 C.ar    1  UNL1        0.0046
     21 C          -4.0246    0.7573   -0.1381 C.ar    1  UNL1       -0.0130
     22 C          -4.3073    2.0698   -0.0573 C.2     1  UNL1       -0.0719
     23 C           4.3322    1.3610    0.3051 C.ar    1  UNL1        0.0687
     24 S           5.2381    2.8302    0.4540 S.2     1  UNL1       -0.0919
     25 C           6.7549    2.0225    0.4681 C.ar    1  UNL1       -0.0154
     26 C           6.5181    0.6975    0.3614 C.ar    1  UNL1       -0.0031
     27 C           7.3748   -0.4276    0.3212 C.ar    1  UNL1       -0.0465
     28 C           6.6703   -1.6295    0.2012 C.ar    1  UNL1       -0.0231
     29 S           4.9200   -1.5021    0.1270 S.2     1  UNL1       -0.0954
     30 C           5.1864    0.2859    0.2684 C.ar    1  UNL1        0.0370
     31 H          -6.0668    2.8999   -0.9801 H       1  UNL1        0.0350
     32 H          -6.1524    2.7718    0.8025 H       1  UNL1        0.0350
     33 H          -7.3684    0.6474   -0.3065 H       1  UNL1        0.0581
     34 H          -6.3296   -1.8775   -0.4380 H       1  UNL1        0.0624
     35 H          -4.2824   -3.1907   -0.4341 H       1  UNL1        0.0624
     36 H          -2.3735   -4.2945   -0.4217 H       1  UNL1        0.0700
     37 H           1.7196   -2.3360   -0.0848 H       1  UNL1        0.0700
     38 H           2.2501    3.4425    0.3552 H       1  UNL1        0.0667
     39 H          -3.6181    2.8908    0.0348 H       1  UNL1        0.0581
     40 H           7.6877    2.5623    0.5514 H       1  UNL1        0.0700
     41 H           8.4560   -0.3916    0.3753 H       1  UNL1        0.0629
     42 H           7.0921   -2.6242    0.1496 H       1  UNL1        0.0694
@<TRIPOS>BOND
     1     1     2    1
     2     2     3    2
     3     3     4   ar
     4     4     5   ar
     5     5     6   ar
     6     6     7   ar
     7     7     8   ar
     8     8     9   ar
     9     9    10   ar
    10    10    11   ar
    11    11    12   ar
    12    12    13   ar
    13    13    14   ar
    14    14    15   ar
    15    15    16   ar
    16    16    17   ar
    17    17    18   ar
    18    18    19   ar
    19    19    20   ar
    20    20    21   ar
    21    21    22    2
    22    15    23    1
    23    23    24   ar
    24    24    25   ar
    25    25    26   ar
    26    26    27   ar
    27    27    28   ar
    28    28    29   ar
    29    29    30   ar
    30    22     1    1
    31    30    23   ar
    32    21     3   ar
    33    30    26   ar
    34    20     6   ar
    35    11     7   ar
    36    19    12   ar
    37    17    13   ar
    38     1    31    1
    39     1    32    1
    40     2    33    1
    41     4    34    1
    42     5    35    1
    43     8    36    1
    44    10    37    1
    45    16    38    1
    46    22    39    1
    47    25    40    1
    48    27    41    1
    49    28    42    1
