@<TRIPOS>MOLECULE
*****
 42 48 0 0 0
SMALL
GASTEIGER

@<TRIPOS>ATOM
      1 C          -4.0512   -3.5258   -0.0794 C.3     1  UNL1       -0.0148
      2 C          -5.2247   -2.6008    0.0027 C.2     1  UNL1       -0.0725
      3 C          -4.7879   -1.3358    0.0592 C.ar    1  UNL1       -0.0211
      4 C          -5.5793   -0.1353    0.1459 C.ar    1  UNL1       -0.0537
      5 C          -4.9643    1.0596    0.1938 C.ar    1  UNL1       -0.0513
      6 C          -3.4887    1.1573    0.1588 C.ar    1  UNL1        0.0129
      7 C          -2.8645    2.4308    0.2107 C.ar    1  UNL1        0.1083
      8 N          -3.4670    3.6385    0.2927 N.ar    1  UNL1       -0.1901
      9 S          -2.2564    4.7924    0.3221 S.2     1  UNL1        0.1165
     10 N          -0.8996    3.8163    0.2320 N.ar    1  UNL1       -0.1901
     11 C          -1.4216    2.6004    0.1804 C.ar    1  UNL1        0.1102
     12 C          -0.6243    1.4141    0.0941 C.ar    1  UNL1        0.0376
     13 C           0.7763    1.3164    0.0503 C.ar    1  UNL1        0.0277
     14 C           1.8637    2.1936    0.0679 C.ar    1  UNL1        0.0380
     15 N           3.1336    1.7158    0.0069 N.ar    1  UNL1       -0.2545
     16 C           3.3577    0.3820   -0.0717 C.ar    1  UNL1        0.0693
     17 C           2.3305   -0.5594   -0.0944 C.ar    1  UNL1       -0.0120
     18 C           1.0309   -0.0517   -0.0310 C.ar    1  UNL1        0.0511
     19 N          -0.1845   -0.7094   -0.0333 N.ar    1  UNL1       -0.3535
     20 C          -1.2427    0.1734    0.0438 C.ar    1  UNL1        0.0581
     21 C          -2.6435    0.0038    0.0731 C.ar    1  UNL1        0.0156
     22 C          -3.3221   -1.3064    0.0208 C.ar    1  UNL1       -0.0120
     23 C          -2.8842   -2.5750   -0.0598 C.2     1  UNL1       -0.0719
     24 C           4.7680   -0.0092   -0.1319 C.2     1  UNL1       -0.0182
     25 C           5.3198   -1.2338   -0.2138 C.2     1  UNL1       -0.0565
     26 C           6.7558   -1.1194   -0.2472 C.2     1  UNL1       -0.0650
     27 C           7.1008    0.1736   -0.1863 C.2     1  UNL1       -0.0796
     28 C           5.8647    1.0264   -0.1058 C.3     1  UNL1       -0.0072
     29 H          -4.0691   -4.1060   -1.0066 H       1  UNL1        0.0350
     30 H          -4.0203   -4.2027    0.7794 H       1  UNL1        0.0350
     31 H          -6.2555   -2.9204    0.0136 H       1  UNL1        0.0581
     32 H          -6.6609   -0.2104    0.1715 H       1  UNL1        0.0624
     33 H          -5.5413    1.9770    0.2593 H       1  UNL1        0.0624
     34 H           1.7607    3.2713    0.1292 H       1  UNL1        0.0836
     35 H           2.5184   -1.6227   -0.1573 H       1  UNL1        0.0660
     36 H          -0.2704   -1.7113   -0.0854 H       1  UNL1        0.1659
     37 H          -1.8720   -2.9313   -0.1067 H       1  UNL1        0.0581
     38 H           4.8090   -2.1829   -0.2514 H       1  UNL1        0.0621
     39 H           7.4321   -1.9582   -0.3115 H       1  UNL1        0.0615
     40 H           8.1083    0.5605   -0.1931 H       1  UNL1        0.0575
     41 H           5.8576    1.6037    0.8244 H       1  UNL1        0.0356
     42 H           5.8081    1.7011   -0.9661 H       1  UNL1        0.0356
@<TRIPOS>BOND
     1     1     2    1
     2     2     3    2
     3     3     4   ar
     4     4     5   ar
     5     5     6   ar
     6     6     7   ar
     7     7     8   ar
     8     8     9   ar
     9     9    10   ar
    10    10    11   ar
    11    11    12   ar
    12    12    13   ar
    13    13    14   ar
    14    14    15   ar
    15    15    16   ar
    16    16    17   ar
    17    17    18   ar
    18    18    19   ar
    19    19    20   ar
    20    20    21   ar
    21    21    22   ar
    22    22    23    2
    23    16    24    1
    24    24    25    2
    25    25    26    1
    26    26    27    2
    27    27    28    1
    28    23     1    1
    29    28    24    1
    30    22     3   ar
    31    21     6   ar
    32    11     7   ar
    33    20    12   ar
    34    18    13   ar
    35     1    29    1
    36     1    30    1
    37     2    31    1
    38     4    32    1
    39     5    33    1
    40    14    34    1
    41    17    35    1
    42    19    36    1
    43    23    37    1
    44    25    38    1
    45    26    39    1
    46    27    40    1
    47    28    41    1
    48    28    42    1
