@<TRIPOS>MOLECULE
*****
 50 57 0 0 0
SMALL
GASTEIGER

@<TRIPOS>ATOM
      1 C          -5.9636   -2.8024   -0.2152 C.3     1  UNL1       -0.0148
      2 C          -6.6805   -1.5395    0.1696 C.2     1  UNL1       -0.0725
      3 C          -5.7857   -0.5560    0.3339 C.ar    1  UNL1       -0.0212
      4 C          -6.0079    0.8177    0.7006 C.ar    1  UNL1       -0.0537
      5 C          -4.9508    1.6443    0.8103 C.ar    1  UNL1       -0.0534
      6 C          -3.5612    1.1752    0.5627 C.ar    1  UNL1       -0.0167
      7 C          -2.4966    2.0665    0.6880 C.ar    1  UNL1       -0.0457
      8 C          -1.1695    1.6504    0.4596 C.ar    1  UNL1       -0.0092
      9 C          -0.8645    0.3060    0.0926 C.ar    1  UNL1       -0.0069
     10 C          -1.9641   -0.5705   -0.0257 C.ar    1  UNL1       -0.0451
     11 C          -3.2884   -0.1608    0.2009 C.ar    1  UNL1       -0.0099
     12 C          -4.4438   -1.0658    0.0806 C.ar    1  UNL1       -0.0141
     13 C          -4.5247   -2.3676   -0.2397 C.2     1  UNL1       -0.0720
     14 C           0.5662   -0.1126   -0.1462 C.ar    1  UNL1        0.0186
     15 C           0.9810   -1.4378   -0.5182 C.ar    1  UNL1        0.1087
     16 N           0.1924   -2.5110   -0.7139 N.ar    1  UNL1       -0.1901
     17 S           1.1385   -3.7915   -1.1244 S.2     1  UNL1        0.1165
     18 N           2.6229   -3.0845   -1.0859 N.ar    1  UNL1       -0.1902
     19 C           2.4562   -1.7929   -0.7457 C.ar    1  UNL1        0.1079
     20 C           3.4859   -0.8211   -0.5979 C.ar    1  UNL1        0.0072
     21 C           3.0250    0.4595   -0.2326 C.ar    1  UNL1       -0.0438
     22 C           1.6597    0.8092   -0.0167 C.ar    1  UNL1       -0.0071
     23 C           1.3209    2.1949    0.3639 C.ar    1  UNL1       -0.0134
     24 C           2.1246    3.2569    0.5563 C.2     1  UNL1       -0.0719
     25 C           1.3100    4.4559    0.9346 C.3     1  UNL1       -0.0148
     26 C          -0.0814    3.9046    0.9258 C.2     1  UNL1       -0.0719
     27 C          -0.0565    2.6012    0.5951 C.ar    1  UNL1       -0.0135
     28 C           4.9070   -1.1331   -0.8098 C.2     1  UNL1       -0.0344
     29 C           5.9505   -0.2881   -0.6939 C.2     1  UNL1       -0.0579
     30 C           7.1836   -0.9729   -0.9828 C.2     1  UNL1       -0.0651
     31 C           6.9205   -2.2503   -1.2813 C.2     1  UNL1       -0.0797
     32 C           5.4399   -2.4935   -1.2038 C.3     1  UNL1       -0.0086
     33 H          -6.1243   -3.5886    0.5283 H       1  UNL1        0.0350
     34 H          -6.2852   -3.1534   -1.2001 H       1  UNL1        0.0350
     35 H          -7.7493   -1.4562    0.2901 H       1  UNL1        0.0581
     36 H          -7.0186    1.1646    0.8820 H       1  UNL1        0.0624
     37 H          -5.0957    2.6836    1.0855 H       1  UNL1        0.0624
     38 H          -2.7058    3.0951    0.9665 H       1  UNL1        0.0630
     39 H          -1.8219   -1.6072   -0.3002 H       1  UNL1        0.0630
     40 H          -3.7026   -3.0231   -0.4813 H       1  UNL1        0.0581
     41 H           3.7715    1.2406   -0.1062 H       1  UNL1        0.0630
     42 H           3.1984    3.2919    0.4649 H       1  UNL1        0.0581
     43 H           1.4226    5.2582    0.1997 H       1  UNL1        0.0350
     44 H           1.5842    4.8228    1.9279 H       1  UNL1        0.0350
     45 H          -0.9495    4.5011    1.1573 H       1  UNL1        0.0581
     46 H           5.9289    0.7571   -0.4274 H       1  UNL1        0.0620
     47 H           8.1583   -0.5099   -0.9572 H       1  UNL1        0.0615
     48 H           7.6499   -3.0025   -1.5401 H       1  UNL1        0.0575
     49 H           5.0651   -2.8125   -2.1815 H       1  UNL1        0.0356
     50 H           5.2284   -3.2520   -0.4436 H       1  UNL1        0.0356
@<TRIPOS>BOND
     1     1     2    1
     2     2     3    2
     3     3     4   ar
     4     4     5   ar
     5     5     6   ar
     6     6     7   ar
     7     7     8   ar
     8     8     9   ar
     9     9    10   ar
    10    10    11   ar
    11    11    12   ar
    12    12    13    2
    13     9    14   ar
    14    14    15   ar
    15    15    16   ar
    16    16    17   ar
    17    17    18   ar
    18    18    19   ar
    19    19    20   ar
    20    20    21   ar
    21    21    22   ar
    22    22    23   ar
    23    23    24    2
    24    24    25    1
    25    25    26    1
    26    26    27    2
    27    20    28    1
    28    28    29    2
    29    29    30    1
    30    30    31    2
    31    31    32    1
    32    13     1    1
    33    22    14   ar
    34    27    23   ar
    35    32    28    1
    36    12     3   ar
    37    19    15   ar
    38    11     6   ar
    39    27     8   ar
    40     1    33    1
    41     1    34    1
    42     2    35    1
    43     4    36    1
    44     5    37    1
    45     7    38    1
    46    10    39    1
    47    13    40    1
    48    21    41    1
    49    24    42    1
    50    25    43    1
    51    25    44    1
    52    26    45    1
    53    29    46    1
    54    30    47    1
    55    31    48    1
    56    32    49    1
    57    32    50    1
