@<TRIPOS>MOLECULE
*****
 50 57 0 0 0
SMALL
GASTEIGER

@<TRIPOS>ATOM
      1 C           5.3163    3.6284    1.5426 C.3     1  UNL1       -0.0148
      2 C           6.3705    2.6796    1.0479 C.2     1  UNL1       -0.0725
      3 C           5.7834    1.5627    0.5972 C.ar    1  UNL1       -0.0212
      4 C           6.3921    0.3869    0.0340 C.ar    1  UNL1       -0.0537
      5 C           5.6066   -0.6329   -0.3599 C.ar    1  UNL1       -0.0534
      6 C           4.1251   -0.5801   -0.2298 C.ar    1  UNL1       -0.0167
      7 C           3.3623   -1.6709   -0.6571 C.ar    1  UNL1       -0.0456
      8 C           1.9538   -1.6361   -0.5400 C.ar    1  UNL1       -0.0071
      9 C           1.0531   -2.6523   -0.9242 C.ar    1  UNL1        0.0078
     10 C           1.3689   -3.8719   -1.4851 C.ar    1  UNL1        0.0100
     11 N           0.1876   -4.5625   -1.7037 N.ar    1  UNL1       -0.3659
     12 C          -0.8904   -3.8061   -1.2932 C.ar    1  UNL1        0.0100
     13 C          -0.3439   -2.6496   -0.8224 C.ar    1  UNL1        0.0082
     14 C          -0.9809   -1.5005   -0.2686 C.ar    1  UNL1       -0.0005
     15 C          -2.3646   -1.3386   -0.0980 C.ar    1  UNL1       -0.0385
     16 C          -2.6335   -0.1062    0.4646 C.ar    1  UNL1        0.0211
     17 S          -1.1940    0.7858    0.7648 S.2     1  UNL1       -0.0876
     18 C          -0.1564   -0.4588    0.1341 C.ar    1  UNL1        0.0283
     19 C           1.2880   -0.4978    0.0118 C.ar    1  UNL1       -0.0023
     20 C           2.0761    0.5926    0.4368 C.ar    1  UNL1       -0.0446
     21 C           3.4743    0.5591    0.3207 C.ar    1  UNL1       -0.0098
     22 C           4.3381    1.6719    0.7497 C.ar    1  UNL1       -0.0141
     23 C           4.0458    2.8633    1.2966 C.2     1  UNL1       -0.0720
     24 C          -3.9196    0.4762    0.8069 C.ar    1  UNL1       -0.0021
     25 C          -4.2764    0.9696    2.0885 C.ar    1  UNL1       -0.0529
     26 C          -5.5662    1.5236    2.4102 C.ar    1  UNL1       -0.0605
     27 C          -6.6325    1.6439    1.4896 C.ar    1  UNL1       -0.0526
     28 C          -6.2596    1.1580    0.2433 C.ar    1  UNL1        0.0000
     29 C          -7.0480    1.1378   -0.8776 C.ar    1  UNL1        0.0094
     30 N          -6.2864    0.5962   -1.8915 N.ar    1  UNL1       -0.3659
     31 C          -5.0284    0.2725   -1.4257 C.ar    1  UNL1        0.0100
     32 C          -4.9858    0.6033   -0.0920 C.ar    1  UNL1        0.0076
     33 H           5.3291    4.5628    0.9739 H       1  UNL1        0.0350
     34 H           5.4470    3.8419    2.6076 H       1  UNL1        0.0350
     35 H           7.4299    2.8827    1.0610 H       1  UNL1        0.0581
     36 H           7.4704    0.3399   -0.0644 H       1  UNL1        0.0624
     37 H           6.0465   -1.5280   -0.7869 H       1  UNL1        0.0624
     38 H           3.8480   -2.5454   -1.0787 H       1  UNL1        0.0630
     39 H           2.3125   -4.3267   -1.7532 H       1  UNL1        0.0813
     40 H           0.1267   -5.4891   -2.1057 H       1  UNL1        0.1648
     41 H          -1.9035   -4.1726   -1.3802 H       1  UNL1        0.0813
     42 H          -3.1307   -2.0581   -0.3566 H       1  UNL1        0.0635
     43 H           1.6025    1.4734    0.8599 H       1  UNL1        0.0630
     44 H           3.0632    3.2397    1.5332 H       1  UNL1        0.0581
     45 H          -3.5385    0.9229    2.8904 H       1  UNL1        0.0624
     46 H          -5.7271    1.8710    3.4314 H       1  UNL1        0.0618
     47 H          -7.5951    2.0642    1.7418 H       1  UNL1        0.0624
     48 H          -8.0643    1.4588   -1.0605 H       1  UNL1        0.0813
     49 H          -6.6002    0.4655   -2.8443 H       1  UNL1        0.1648
     50 H          -4.2913   -0.1501   -2.0949 H       1  UNL1        0.0813
@<TRIPOS>BOND
     1     1     2    1
     2     2     3    2
     3     3     4   ar
     4     4     5   ar
     5     5     6   ar
     6     6     7   ar
     7     7     8   ar
     8     8     9   ar
     9     9    10   ar
    10    10    11   ar
    11    11    12   ar
    12    12    13   ar
    13    13    14   ar
    14    14    15   ar
    15    15    16   ar
    16    16    17   ar
    17    17    18   ar
    18    18    19   ar
    19    19    20   ar
    20    20    21   ar
    21    21    22   ar
    22    22    23    2
    23    16    24    1
    24    24    25   ar
    25    25    26   ar
    26    26    27   ar
    27    27    28   ar
    28    28    29   ar
    29    29    30   ar
    30    30    31   ar
    31    31    32   ar
    32    23     1    1
    33    32    24   ar
    34    22     3   ar
    35    32    28   ar
    36    21     6   ar
    37    19     8   ar
    38    13     9   ar
    39    18    14   ar
    40     1    33    1
    41     1    34    1
    42     2    35    1
    43     4    36    1
    44     5    37    1
    45     7    38    1
    46    10    39    1
    47    11    40    1
    48    12    41    1
    49    15    42    1
    50    20    43    1
    51    23    44    1
    52    25    45    1
    53    26    46    1
    54    27    47    1
    55    29    48    1
    56    30    49    1
    57    31    50    1
