@<TRIPOS>MOLECULE
*****
 47 53 0 0 0
SMALL
GASTEIGER

@<TRIPOS>ATOM
      1 C           5.9242    2.2465    1.9238 C.3     1  UNL1       -0.0148
      2 C           6.8336    1.2875    1.2101 C.2     1  UNL1       -0.0725
      3 C           6.0953    0.3634    0.5810 C.ar    1  UNL1       -0.0212
      4 C           6.5302   -0.7475   -0.2231 C.ar    1  UNL1       -0.0537
      5 C           5.6070   -1.5620   -0.7677 C.ar    1  UNL1       -0.0534
      6 C           4.1478   -1.3470   -0.5622 C.ar    1  UNL1       -0.0162
      7 C           3.2427   -2.2349   -1.1594 C.ar    1  UNL1       -0.0397
      8 C           1.8605   -2.0365   -0.9683 C.ar    1  UNL1        0.0208
      9 S           0.5710   -3.0175   -1.6181 S.2     1  UNL1       -0.0885
     10 C          -0.5768   -2.0515   -0.8905 C.ar    1  UNL1        0.0171
     11 C          -1.9860   -2.0754   -0.8583 C.2     1  UNL1       -0.0436
     12 C          -2.3594   -1.0187   -0.0981 C.2     1  UNL1       -0.0342
     13 C          -1.1572   -0.2206    0.4296 C.3     1  UNL1       -0.0002
     14 C          -0.0457   -1.0124   -0.1719 C.ar    1  UNL1       -0.0211
     15 C           1.3693   -0.9710   -0.1940 C.ar    1  UNL1       -0.0061
     16 C           2.2931   -0.0827    0.4026 C.ar    1  UNL1       -0.0449
     17 C           3.6706   -0.2684    0.2206 C.ar    1  UNL1       -0.0098
     18 C           4.6805    0.6221    0.8158 C.ar    1  UNL1       -0.0141
     19 C           4.5586    1.7107    1.5929 C.2     1  UNL1       -0.0720
     20 C          -3.7325   -0.6322    0.2196 C.ar    1  UNL1       -0.0138
     21 C          -4.3784   -1.3446    1.2413 C.ar    1  UNL1       -0.0537
     22 C          -5.6796   -1.0234    1.6125 C.ar    1  UNL1       -0.0606
     23 C          -6.3495    0.0112    0.9640 C.ar    1  UNL1       -0.0540
     24 C          -5.7335    0.7345   -0.0689 C.ar    1  UNL1       -0.0173
     25 C          -6.4274    1.7698   -0.7176 C.ar    1  UNL1       -0.0540
     26 C          -5.8364    2.4925   -1.7530 C.ar    1  UNL1       -0.0612
     27 C          -4.5435    2.1873   -2.1568 C.ar    1  UNL1       -0.0611
     28 C          -3.8397    1.1622   -1.5211 C.ar    1  UNL1       -0.0535
     29 C          -4.4087    0.4162   -0.4614 C.ar    1  UNL1       -0.0105
     30 H           6.0496    3.2649    1.5445 H       1  UNL1        0.0350
     31 H           6.1024    2.2293    3.0030 H       1  UNL1        0.0350
     32 H           7.9107    1.3485    1.2144 H       1  UNL1        0.0581
     33 H           7.5904   -0.9118   -0.3779 H       1  UNL1        0.0624
     34 H           5.9144   -2.4054   -1.3773 H       1  UNL1        0.0624
     35 H           3.5904   -3.0680   -1.7633 H       1  UNL1        0.0635
     36 H          -2.6237   -2.7941   -1.3507 H       1  UNL1        0.0632
     37 H          -1.1591    0.8096    0.0628 H       1  UNL1        0.0362
     38 H          -1.1173   -0.2394    1.5229 H       1  UNL1        0.0362
     39 H           1.9211    0.7425    1.0017 H       1  UNL1        0.0630
     40 H           3.6396    2.1544    1.9412 H       1  UNL1        0.0581
     41 H          -3.8643   -2.1524    1.7585 H       1  UNL1        0.0624
     42 H          -6.1721   -1.5774    2.4073 H       1  UNL1        0.0618
     43 H          -7.3666    0.2478    1.2701 H       1  UNL1        0.0624
     44 H          -7.4436    2.0208   -0.4204 H       1  UNL1        0.0624
     45 H          -6.3885    3.2885   -2.2454 H       1  UNL1        0.0618
     46 H          -4.0796    2.7414   -2.9686 H       1  UNL1        0.0618
     47 H          -2.8335    0.9432   -1.8721 H       1  UNL1        0.0624
@<TRIPOS>BOND
     1     1     2    1
     2     2     3    2
     3     3     4   ar
     4     4     5   ar
     5     5     6   ar
     6     6     7   ar
     7     7     8   ar
     8     8     9   ar
     9     9    10   ar
    10    10    11    1
    11    11    12    2
    12    12    13    1
    13    13    14    1
    14    14    15   ar
    15    15    16   ar
    16    16    17   ar
    17    17    18   ar
    18    18    19    2
    19    12    20    1
    20    20    21   ar
    21    21    22   ar
    22    22    23   ar
    23    23    24   ar
    24    24    25   ar
    25    25    26   ar
    26    26    27   ar
    27    27    28   ar
    28    28    29   ar
    29    19     1    1
    30    29    20   ar
    31    18     3   ar
    32    29    24   ar
    33    17     6   ar
    34    15     8   ar
    35    14    10   ar
    36     1    30    1
    37     1    31    1
    38     2    32    1
    39     4    33    1
    40     5    34    1
    41     7    35    1
    42    11    36    1
    43    13    37    1
    44    13    38    1
    45    16    39    1
    46    19    40    1
    47    21    41    1
    48    22    42    1
    49    23    43    1
    50    25    44    1
    51    26    45    1
    52    27    46    1
    53    28    47    1
