@<TRIPOS>MOLECULE
*****
 48 54 0 0 0
SMALL
GASTEIGER

@<TRIPOS>ATOM
      1 C          -6.4095    0.9171   -2.5235 C.3     1  UNL1       -0.0148
      2 C          -7.0047    0.8816   -1.1535 C.2     1  UNL1       -0.0725
      3 C          -6.0355    0.6447   -0.2598 C.ar    1  UNL1       -0.0212
      4 C          -6.1602    0.6295    1.1688 C.ar    1  UNL1       -0.0537
      5 C          -5.0520    0.4901    1.9123 C.ar    1  UNL1       -0.0534
      6 C          -3.7117    0.2987    1.2981 C.ar    1  UNL1       -0.0166
      7 C          -2.6234    0.1848    2.1716 C.ar    1  UNL1       -0.0534
      8 C          -1.3463   -0.0488    1.6783 C.ar    1  UNL1       -0.0514
      9 C          -1.1526   -0.2212    0.2973 C.ar    1  UNL1        0.0096
     10 C           0.1387   -0.5075   -0.2017 C.ar    1  UNL1        0.0732
     11 N           1.3678   -0.6406    0.4035 N.ar    1  UNL1       -0.3524
     12 C           2.3479   -0.9082   -0.5276 C.ar    1  UNL1        0.0496
     13 C           1.7204   -0.9900   -1.7563 C.ar    1  UNL1       -0.0103
     14 C           0.3448   -0.7332   -1.5568 C.ar    1  UNL1        0.0896
     15 N          -0.6499   -0.7113   -2.4679 N.ar    1  UNL1       -0.2528
     16 C          -1.8770   -0.4247   -1.9599 C.ar    1  UNL1        0.0367
     17 C          -2.2234   -0.1338   -0.6245 C.ar    1  UNL1        0.0105
     18 C          -3.5227    0.1976   -0.1197 C.ar    1  UNL1       -0.0013
     19 C          -4.7466    0.4613   -0.9329 C.ar    1  UNL1       -0.0135
     20 C          -4.9529    0.6672   -2.2472 C.2     1  UNL1       -0.0719
     21 C           3.7483   -1.1083   -0.1536 C.ar    1  UNL1        0.0061
     22 C           4.2904   -2.3897   -0.3376 C.ar    1  UNL1       -0.0520
     23 C           5.5996   -2.6665    0.0409 C.ar    1  UNL1       -0.0605
     24 C           6.3825   -1.6644    0.6081 C.ar    1  UNL1       -0.0540
     25 C           5.8751   -0.3692    0.7928 C.ar    1  UNL1       -0.0173
     26 C           6.6856    0.6301    1.3574 C.ar    1  UNL1       -0.0540
     27 C           6.2092    1.9282    1.5336 C.ar    1  UNL1       -0.0612
     28 C           4.9168    2.2473    1.1404 C.ar    1  UNL1       -0.0611
     29 C           4.0976    1.2646    0.5802 C.ar    1  UNL1       -0.0534
     30 C           4.5452   -0.0677    0.4029 C.ar    1  UNL1       -0.0088
     31 H          -6.8303    0.1354   -3.1624 H       1  UNL1        0.0350
     32 H          -6.5567    1.8952   -2.9909 H       1  UNL1        0.0350
     33 H          -8.0440    1.0711   -0.9336 H       1  UNL1        0.0581
     34 H          -7.1343    0.7629    1.6253 H       1  UNL1        0.0624
     35 H          -5.1228    0.4969    2.9952 H       1  UNL1        0.0624
     36 H          -2.7624    0.2768    3.2464 H       1  UNL1        0.0624
     37 H          -0.5235   -0.1242    2.3827 H       1  UNL1        0.0624
     38 H           1.5412   -0.5462    1.3940 H       1  UNL1        0.1660
     39 H           2.1968   -1.2056   -2.7026 H       1  UNL1        0.0660
     40 H          -2.6363   -0.4849   -2.7288 H       1  UNL1        0.0836
     41 H          -4.2287    0.6998   -3.0419 H       1  UNL1        0.0581
     42 H           3.6841   -3.1840   -0.7687 H       1  UNL1        0.0624
     43 H           6.0087   -3.6632   -0.1021 H       1  UNL1        0.0618
     44 H           7.4035   -1.9022    0.9001 H       1  UNL1        0.0624
     45 H           7.7058    0.4038    1.6610 H       1  UNL1        0.0624
     46 H           6.8521    2.6899    1.9668 H       1  UNL1        0.0618
     47 H           4.5446    3.2616    1.2586 H       1  UNL1        0.0618
     48 H           3.1006    1.5594    0.2596 H       1  UNL1        0.0624
@<TRIPOS>BOND
     1     1     2    1
     2     2     3    2
     3     3     4   ar
     4     4     5   ar
     5     5     6   ar
     6     6     7   ar
     7     7     8   ar
     8     8     9   ar
     9     9    10   ar
    10    10    11   ar
    11    11    12   ar
    12    12    13   ar
    13    13    14   ar
    14    14    15   ar
    15    15    16   ar
    16    16    17   ar
    17    17    18   ar
    18    18    19   ar
    19    19    20    2
    20    12    21    1
    21    21    22   ar
    22    22    23   ar
    23    23    24   ar
    24    24    25   ar
    25    25    26   ar
    26    26    27   ar
    27    27    28   ar
    28    28    29   ar
    29    29    30   ar
    30    20     1    1
    31    30    21   ar
    32    19     3   ar
    33    30    25   ar
    34    18     6   ar
    35    17     9   ar
    36    14    10   ar
    37     1    31    1
    38     1    32    1
    39     2    33    1
    40     4    34    1
    41     5    35    1
    42     7    36    1
    43     8    37    1
    44    11    38    1
    45    13    39    1
    46    16    40    1
    47    20    41    1
    48    22    42    1
    49    23    43    1
    50    24    44    1
    51    26    45    1
    52    27    46    1
    53    28    47    1
    54    29    48    1
