@<TRIPOS>MOLECULE
*****
 46 53 0 0 0
SMALL
GASTEIGER

@<TRIPOS>ATOM
      1 C          -5.9296   -2.8602    0.0606 C.3     1  UNL1        0.0000
      2 C          -6.5120   -1.8460    0.9931 C.2     1  UNL1        0.0000
      3 C          -5.5588   -0.9681    1.3330 C.ar    1  UNL1        0.0000
      4 C          -5.6430    0.0659    2.3227 C.ar    1  UNL1        0.0000
      5 C          -4.5184    0.7120    2.6681 C.ar    1  UNL1        0.0000
      6 C          -3.2194    0.4410    1.9962 C.ar    1  UNL1        0.0000
      7 C          -2.0988    1.1087    2.4824 C.ar    1  UNL1        0.0000
      8 C          -0.8605    0.9556    1.8646 C.ar    1  UNL1        0.0000
      9 C          -0.7004    0.2137    0.6815 C.ar    1  UNL1        0.0000
     10 C           0.5771    0.1429    0.0519 C.ar    1  UNL1        0.0000
     11 SI          2.2764    0.8459    0.6178 Si      1  UNL1        0.0000
     12 C           3.0703    0.1622   -0.9373 C.2     1  UNL1        0.0000
     13 C           2.1894   -0.4799   -1.7290 C.2     1  UNL1        0.0000
     14 C           0.8243   -0.4917   -1.1927 C.ar    1  UNL1        0.0000
     15 C          -0.2808   -1.0454   -1.8567 C.ar    1  UNL1        0.0000
     16 N          -0.2702   -1.6272   -3.0682 N.ar    1  UNL1        0.0000
     17 S          -1.8360   -2.0184   -3.4163 S.2     1  UNL1        0.0000
     18 N          -2.5865   -1.4954   -2.0441 N.ar    1  UNL1        0.0000
     19 C          -1.6525   -1.0096   -1.2061 C.ar    1  UNL1        0.0000
     20 C          -1.8654   -0.4416    0.1270 C.ar    1  UNL1        0.0000
     21 C          -3.1006   -0.4268    0.8692 C.ar    1  UNL1        0.0000
     22 C          -4.3108   -1.2626    0.6256 C.ar    1  UNL1        0.0000
     23 C          -4.5017   -2.4111   -0.0477 C.2     1  UNL1        0.0000
     24 C           4.4500    0.3125   -1.2159 C.ar    1  UNL1        0.0000
     25 S           5.4069   -1.0221   -1.8497 S.2     1  UNL1        0.0000
     26 C           6.8835   -0.1178   -1.8896 C.ar    1  UNL1        0.0000
     27 C           6.6180    1.1228   -1.4406 C.ar    1  UNL1        0.0000
     28 N           7.5056    2.1514   -1.3182 N.ar    1  UNL1        0.0000
     29 C           6.6821    3.1618   -0.8279 C.ar    1  UNL1        0.0000
     30 C           5.3510    2.7177   -0.6755 C.ar    1  UNL1        0.0000
     31 C           5.3101    1.3540   -1.0783 C.ar    1  UNL1        0.0000
     32 H          -6.4270   -2.8420   -0.9133 H       1  UNL1        0.0000
     33 H          -5.9914   -3.8653    0.4882 H       1  UNL1        0.0000
     34 H          -7.5172   -1.8813    1.3832 H       1  UNL1        0.0000
     35 H          -6.5890    0.2715    2.8097 H       1  UNL1        0.0000
     36 H          -4.5472    1.4753    3.4389 H       1  UNL1        0.0000
     37 H          -2.1714    1.7496    3.3586 H       1  UNL1        0.0000
     38 H          -0.0276    1.4862    2.3205 H       1  UNL1        0.0000
     39 H           2.2357    2.3310    0.6716 H       1  UNL1        0.0000
     40 H           2.7290    0.1836    1.8680 H       1  UNL1        0.0000
     41 H           2.4180   -0.9478   -2.6789 H       1  UNL1        0.0000
     42 H          -3.7638   -2.9812   -0.5861 H       1  UNL1        0.0000
     43 H           7.8164   -0.5431   -2.2310 H       1  UNL1        0.0000
     44 H           8.4940    2.1527   -1.5389 H       1  UNL1        0.0000
     45 H           7.1100    4.1361   -0.6288 H       1  UNL1        0.0000
     46 H           4.5319    3.3306   -0.3239 H       1  UNL1        0.0000
@<TRIPOS>BOND
     1     1     2    1
     2     2     3    2
     3     3     4   ar
     4     4     5   ar
     5     5     6   ar
     6     6     7   ar
     7     7     8   ar
     8     8     9   ar
     9     9    10   ar
    10    10    11    1
    11    11    12    1
    12    12    13    2
    13    13    14    1
    14    14    15   ar
    15    15    16   ar
    16    16    17   ar
    17    17    18   ar
    18    18    19   ar
    19    19    20   ar
    20    20    21   ar
    21    21    22   ar
    22    22    23    2
    23    12    24    1
    24    24    25   ar
    25    25    26   ar
    26    26    27   ar
    27    27    28   ar
    28    28    29   ar
    29    29    30   ar
    30    30    31   ar
    31    23     1    1
    32    31    24   ar
    33    22     3   ar
    34    31    27   ar
    35    21     6   ar
    36    20     9   ar
    37    14    10   ar
    38    19    15   ar
    39     1    32    1
    40     1    33    1
    41     2    34    1
    42     4    35    1
    43     5    36    1
    44     7    37    1
    45     8    38    1
    46    11    39    1
    47    11    40    1
    48    13    41    1
    49    23    42    1
    50    26    43    1
    51    28    44    1
    52    29    45    1
    53    30    46    1
