@<TRIPOS>MOLECULE
*****
 50 57 0 0 0
SMALL
GASTEIGER

@<TRIPOS>ATOM
      1 C          -5.7957   -2.3551   -0.0675 C.3     1  UNL1       -0.0148
      2 C          -6.6727   -1.1455   -0.1749 C.2     1  UNL1       -0.0725
      3 C          -5.9035   -0.0495   -0.2187 C.ar    1  UNL1       -0.0212
      4 C          -6.3210    1.3225   -0.1574 C.ar    1  UNL1       -0.0537
      5 C          -5.3830    2.2692    0.0142 C.ar    1  UNL1       -0.0534
      6 C          -3.9344    1.9361    0.0612 C.ar    1  UNL1       -0.0167
      7 C          -3.0341    2.9472    0.3698 C.ar    1  UNL1       -0.0534
      8 C          -1.6604    2.6867    0.4071 C.ar    1  UNL1       -0.0528
      9 C          -1.0850    1.4512    0.0320 C.ar    1  UNL1       -0.0089
     10 C           0.3824    1.2512    0.0783 C.ar    1  UNL1       -0.0095
     11 C           1.2788    2.1926    0.6457 C.ar    1  UNL1       -0.0528
     12 C           2.6712    2.0072    0.7005 C.ar    1  UNL1       -0.0529
     13 C           3.2621    0.8577    0.1840 C.ar    1  UNL1       -0.0104
     14 C           2.4310   -0.1045   -0.3868 C.ar    1  UNL1       -0.0452
     15 C           1.0207    0.0823   -0.4402 C.ar    1  UNL1       -0.0085
     16 C           0.1025   -0.8135   -1.0390 C.ar    1  UNL1       -0.0025
     17 C           0.4876   -1.9513   -1.7156 C.ar    1  UNL1       -0.0160
     18 S          -0.8388   -2.7324   -2.4631 S.2     1  UNL1       -0.1038
     19 C          -1.9280   -1.5445   -1.8851 C.ar    1  UNL1       -0.0160
     20 C          -1.3302   -0.6379   -1.0352 C.ar    1  UNL1       -0.0020
     21 C          -2.0256    0.4450   -0.4076 C.ar    1  UNL1       -0.0008
     22 C          -3.4438    0.6363   -0.2289 C.ar    1  UNL1       -0.0022
     23 C          -4.4897   -0.4209   -0.2226 C.ar    1  UNL1       -0.0135
     24 C          -4.4195   -1.7533   -0.0513 C.2     1  UNL1       -0.0719
     25 C           4.7072    0.6418    0.2514 C.ar    1  UNL1        0.0234
     26 S           5.8079    1.8490   -0.3357 S.2     1  UNL1       -0.0958
     27 C           7.2049    0.9077    0.0474 C.ar    1  UNL1       -0.0163
     28 C           6.8138   -0.2742    0.5957 C.ar    1  UNL1       -0.0142
     29 C           7.4656   -1.4246    1.1033 C.2     1  UNL1       -0.0574
     30 C           6.5357   -2.3055    1.5380 C.2     1  UNL1       -0.0791
     31 C           5.1161   -1.7646    1.3331 C.3     1  UNL1       -0.0075
     32 C           5.4146   -0.4405    0.7130 C.ar    1  UNL1       -0.0217
     33 H          -5.9270   -3.0222   -0.9243 H       1  UNL1        0.0350
     34 H          -5.9941   -2.9006    0.8599 H       1  UNL1        0.0350
     35 H          -7.7506   -1.1674   -0.1315 H       1  UNL1        0.0581
     36 H          -7.3759    1.5680   -0.1936 H       1  UNL1        0.0624
     37 H          -5.6698    3.3121    0.1015 H       1  UNL1        0.0624
     38 H          -3.3845    3.9470    0.6159 H       1  UNL1        0.0624
     39 H          -1.0366    3.5288    0.6953 H       1  UNL1        0.0624
     40 H           0.9130    3.1116    1.0956 H       1  UNL1        0.0624
     41 H           3.2817    2.7762    1.1702 H       1  UNL1        0.0624
     42 H           2.8805   -0.9998   -0.8062 H       1  UNL1        0.0630
     43 H           1.4753   -2.3616   -1.8660 H       1  UNL1        0.0700
     44 H          -2.9533   -1.5931   -2.2202 H       1  UNL1        0.0700
     45 H          -3.5271   -2.3386    0.1060 H       1  UNL1        0.0581
     46 H           8.1991    1.2810   -0.1522 H       1  UNL1        0.0699
     47 H           8.5367   -1.5653    1.1358 H       1  UNL1        0.0621
     48 H           6.7473   -3.2694    1.9762 H       1  UNL1        0.0575
     49 H           4.5500   -2.4140    0.6597 H       1  UNL1        0.0356
     50 H           4.5985   -1.6586    2.2905 H       1  UNL1        0.0356
@<TRIPOS>BOND
     1     1     2    1
     2     2     3    2
     3     3     4   ar
     4     4     5   ar
     5     5     6   ar
     6     6     7   ar
     7     7     8   ar
     8     8     9   ar
     9     9    10   ar
    10    10    11   ar
    11    11    12   ar
    12    12    13   ar
    13    13    14   ar
    14    14    15   ar
    15    15    16   ar
    16    16    17   ar
    17    17    18   ar
    18    18    19   ar
    19    19    20   ar
    20    20    21   ar
    21    21    22   ar
    22    22    23   ar
    23    23    24    2
    24    13    25    1
    25    25    26   ar
    26    26    27   ar
    27    27    28   ar
    28    28    29    1
    29    29    30    2
    30    30    31    1
    31    31    32    1
    32    24     1    1
    33    32    25   ar
    34    23     3   ar
    35    32    28   ar
    36    22     6   ar
    37    21     9   ar
    38    15    10   ar
    39    20    16   ar
    40     1    33    1
    41     1    34    1
    42     2    35    1
    43     4    36    1
    44     5    37    1
    45     7    38    1
    46     8    39    1
    47    11    40    1
    48    12    41    1
    49    14    42    1
    50    17    43    1
    51    19    44    1
    52    24    45    1
    53    27    46    1
    54    29    47    1
    55    30    48    1
    56    31    49    1
    57    31    50    1
