@<TRIPOS>MOLECULE
*****
 44 50 0 0 0
SMALL
GASTEIGER

@<TRIPOS>ATOM
      1 SI          1.2720    3.5003    1.1019 Si      1  UNL1        0.0000
      2 C           2.2075    1.9004    0.9675 C.2     1  UNL1        0.0000
      3 C           1.3908    0.8623    0.6873 C.ar    1  UNL1        0.0000
      4 C           1.8426   -0.5183    0.5250 C.ar    1  UNL1        0.0000
      5 C           0.9149   -1.4609    0.2598 C.ar    1  UNL1        0.0000
      6 C          -0.5250   -1.1543    0.1365 C.ar    1  UNL1        0.0000
      7 C          -1.4062   -2.1867   -0.1268 C.ar    1  UNL1        0.0000
      8 N          -2.7330   -2.0215   -0.2679 N.ar    1  UNL1        0.0000
      9 C          -3.2442   -0.7761   -0.1458 C.ar    1  UNL1        0.0000
     10 C          -4.6304   -0.5862   -0.2910 C.ar    1  UNL1        0.0000
     11 C          -5.5218   -1.6319   -0.5581 C.ar    1  UNL1        0.0000
     12 N          -6.8648   -1.4956   -0.7063 N.ar    1  UNL1        0.0000
     13 C          -7.3663   -0.2524   -0.5838 C.ar    1  UNL1        0.0000
     14 C          -6.5895    0.8609   -0.3210 C.ar    1  UNL1        0.0000
     15 C          -5.2051    0.6877   -0.1737 C.ar    1  UNL1        0.0000
     16 C          -4.3457    1.7380    0.0895 C.ar    1  UNL1        0.0000
     17 N          -3.0128    1.5961    0.2347 N.ar    1  UNL1        0.0000
     18 C          -2.4484    0.3652    0.1239 C.ar    1  UNL1        0.0000
     19 C          -1.0565    0.1517    0.2670 C.ar    1  UNL1        0.0000
     20 C          -0.0488    1.2224    0.5587 C.ar    1  UNL1        0.0000
     21 C          -0.2829    2.5402    0.7398 C.2     1  UNL1        0.0000
     22 C           3.2047   -0.9501    0.5802 C.ar    1  UNL1        0.0000
     23 S           3.8304   -1.7563    1.9894 S.2     1  UNL1        0.0000
     24 C           5.4142   -1.9201    1.3180 C.ar    1  UNL1        0.0000
     25 C           5.4671   -1.3733    0.0655 C.ar    1  UNL1        0.0000
     26 C           6.5491   -1.2698   -0.8645 C.2     1  UNL1        0.0000
     27 C           6.2402   -0.6552   -2.0276 C.2     1  UNL1        0.0000
     28 SI          4.4016   -0.1019   -2.0599 Si      1  UNL1        0.0000
     29 C           4.2174   -0.8310   -0.3303 C.ar    1  UNL1        0.0000
     30 H           1.6205    4.4500    0.0175 H       1  UNL1        0.0000
     31 H           1.2939    4.0605    2.4745 H       1  UNL1        0.0000
     32 H           3.2758    1.8706    1.1151 H       1  UNL1        0.0000
     33 H           1.2099   -2.4984    0.1182 H       1  UNL1        0.0000
     34 H          -1.0669   -3.2137   -0.2378 H       1  UNL1        0.0000
     35 H          -5.1661   -2.6553   -0.6653 H       1  UNL1        0.0000
     36 H          -8.4426   -0.1717   -0.7063 H       1  UNL1        0.0000
     37 H          -7.0552    1.8369   -0.2339 H       1  UNL1        0.0000
     38 H          -4.7055    2.7582    0.1961 H       1  UNL1        0.0000
     39 H          -1.2244    3.0619    0.7060 H       1  UNL1        0.0000
     40 H           6.1977   -2.4019    1.8857 H       1  UNL1        0.0000
     41 H           7.5365   -1.6583   -0.6430 H       1  UNL1        0.0000
     42 H           6.8875   -0.4651   -2.8684 H       1  UNL1        0.0000
     43 H           3.6571   -0.8360   -3.1138 H       1  UNL1        0.0000
     44 H           4.3107    1.3788   -2.1143 H       1  UNL1        0.0000
@<TRIPOS>BOND
     1     1     2    1
     2     2     3    2
     3     3     4   ar
     4     4     5   ar
     5     5     6   ar
     6     6     7   ar
     7     7     8   ar
     8     8     9   ar
     9     9    10   ar
    10    10    11   ar
    11    11    12   ar
    12    12    13   ar
    13    13    14   ar
    14    14    15   ar
    15    15    16   ar
    16    16    17   ar
    17    17    18   ar
    18    18    19   ar
    19    19    20   ar
    20    20    21    2
    21     4    22    1
    22    22    23   ar
    23    23    24   ar
    24    24    25   ar
    25    25    26    1
    26    26    27    2
    27    27    28    1
    28    28    29    1
    29    21     1    1
    30    29    22   ar
    31    20     3   ar
    32    29    25   ar
    33    19     6   ar
    34    18     9   ar
    35    15    10   ar
    36     1    30    1
    37     1    31    1
    38     2    32    1
    39     5    33    1
    40     7    34    1
    41    11    35    1
    42    13    36    1
    43    14    37    1
    44    16    38    1
    45    21    39    1
    46    24    40    1
    47    26    41    1
    48    27    42    1
    49    28    43    1
    50    28    44    1
