@<TRIPOS>MOLECULE
*****
 41 46 0 0 0
SMALL
GASTEIGER

@<TRIPOS>ATOM
      1 C          -5.1840   -1.2911    1.9499 C.3     1  UNL1        0.0000
      2 C          -6.0292   -0.9141    0.7750 C.2     1  UNL1        0.0000
      3 C          -5.2402   -0.4573   -0.2065 C.ar    1  UNL1        0.0000
      4 C          -5.6416    0.0095   -1.5048 C.ar    1  UNL1        0.0000
      5 C          -4.7026    0.4336   -2.3666 C.ar    1  UNL1        0.0000
      6 C          -3.2586    0.4341   -2.0152 C.ar    1  UNL1        0.0000
      7 C          -2.3555    0.8897   -2.9672 C.ar    1  UNL1        0.0000
      8 C          -0.9919    0.9096   -2.6848 C.ar    1  UNL1        0.0000
      9 C          -0.4888    0.4713   -1.4322 C.ar    1  UNL1        0.0000
     10 C           0.8914    0.4252   -0.9746 C.ar    1  UNL1        0.0000
     11 C           2.0938    0.7914   -1.6331 C.ar    1  UNL1        0.0000
     12 C           3.3307    0.6617   -0.9908 C.ar    1  UNL1        0.0000
     13 C           3.4089    0.1761    0.3121 C.ar    1  UNL1        0.0000
     14 C           2.2343   -0.2003    0.9763 C.ar    1  UNL1        0.0000
     15 C           0.9916   -0.0665    0.3206 C.ar    1  UNL1        0.0000
     16 S          -0.5430   -0.4615    0.9511 S.2     1  UNL1        0.0000
     17 C          -1.4023    0.0095   -0.4684 C.ar    1  UNL1        0.0000
     18 C          -2.7990   -0.0176   -0.7408 C.ar    1  UNL1        0.0000
     19 C          -3.8354   -0.4865    0.2117 C.ar    1  UNL1        0.0000
     20 C          -3.7980   -0.9711    1.4662 C.2     1  UNL1        0.0000
     21 C           4.7090    0.0447    0.9608 C.2     1  UNL1        0.0000
     22 C           5.7365   -0.7315    0.5566 C.2     1  UNL1        0.0000
     23 C           6.9304   -0.6646    1.3856 C.2     1  UNL1        0.0000
     24 C           6.8516    0.1667    2.4406 C.2     1  UNL1        0.0000
     25 SI          5.1710    1.0116    2.5220 Si      1  UNL1        0.0000
     26 H          -5.2831   -2.3551    2.1836 H       1  UNL1        0.0000
     27 H          -5.4409   -0.6943    2.8300 H       1  UNL1        0.0000
     28 H          -7.1038   -1.0032    0.7413 H       1  UNL1        0.0000
     29 H          -6.6928    0.0126   -1.7698 H       1  UNL1        0.0000
     30 H          -4.9895    0.7890   -3.3509 H       1  UNL1        0.0000
     31 H          -2.6955    1.2354   -3.9404 H       1  UNL1        0.0000
     32 H          -0.3034    1.2706   -3.4457 H       1  UNL1        0.0000
     33 H           2.0633    1.1778   -2.6487 H       1  UNL1        0.0000
     34 H           4.2335    0.9532   -1.5243 H       1  UNL1        0.0000
     35 H           2.2688   -0.6059    1.9843 H       1  UNL1        0.0000
     36 H          -2.9350   -1.1316    2.0884 H       1  UNL1        0.0000
     37 H           5.7067   -1.3750   -0.3147 H       1  UNL1        0.0000
     38 H           7.8066   -1.2549    1.1466 H       1  UNL1        0.0000
     39 H           7.6174    0.3610    3.1745 H       1  UNL1        0.0000
     40 H           5.2768    2.4740    2.2905 H       1  UNL1        0.0000
     41 H           4.3918    0.5846    3.7117 H       1  UNL1        0.0000
@<TRIPOS>BOND
     1     1     2    1
     2     2     3    2
     3     3     4   ar
     4     4     5   ar
     5     5     6   ar
     6     6     7   ar
     7     7     8   ar
     8     8     9   ar
     9     9    10   ar
    10    10    11   ar
    11    11    12   ar
    12    12    13   ar
    13    13    14   ar
    14    14    15   ar
    15    15    16   ar
    16    16    17   ar
    17    17    18   ar
    18    18    19   ar
    19    19    20    2
    20    13    21    1
    21    21    22    2
    22    22    23    1
    23    23    24    2
    24    24    25    1
    25    20     1    1
    26    25    21    1
    27    19     3   ar
    28    18     6   ar
    29    17     9   ar
    30    15    10   ar
    31     1    26    1
    32     1    27    1
    33     2    28    1
    34     4    29    1
    35     5    30    1
    36     7    31    1
    37     8    32    1
    38    11    33    1
    39    12    34    1
    40    14    35    1
    41    20    36    1
    42    22    37    1
    43    23    38    1
    44    24    39    1
    45    25    40    1
    46    25    41    1
