@<TRIPOS>MOLECULE
*****
 41 47 0 0 0
SMALL
GASTEIGER

@<TRIPOS>ATOM
      1 C          -4.9530    1.6642    2.0022 C.3     1  UNL1       -0.0148
      2 C          -5.7683    1.0524    0.9072 C.2     1  UNL1       -0.0725
      3 C          -4.9534    0.3944    0.0721 C.ar    1  UNL1       -0.0212
      4 C          -5.3288   -0.4604   -1.0163 C.ar    1  UNL1       -0.0537
      5 C          -4.3745   -1.1944   -1.6097 C.ar    1  UNL1       -0.0534
      6 C          -2.9436   -1.0795   -1.2227 C.ar    1  UNL1       -0.0166
      7 C          -2.0417   -1.9376   -1.8393 C.ar    1  UNL1       -0.0534
      8 C          -0.6771   -1.8460   -1.5665 C.ar    1  UNL1       -0.0527
      9 C          -0.1183   -0.8416   -0.7485 C.ar    1  UNL1       -0.0059
     10 C           1.3278   -0.7766   -0.5501 C.ar    1  UNL1        0.0102
     11 C           2.2556   -1.7299   -1.0132 C.ar    1  UNL1        0.0367
     12 N           3.6060   -1.7025   -0.8487 N.ar    1  UNL1       -0.2523
     13 C           4.1401   -0.6610   -0.1733 C.ar    1  UNL1        0.0965
     14 C           3.3456    0.3494    0.3383 C.ar    1  UNL1       -0.0238
     15 C           1.9477    0.2832    0.1485 C.ar    1  UNL1        0.0144
     16 C           1.0927    1.3153    0.6276 C.ar    1  UNL1        0.1083
     17 N           1.5024    2.4336    1.2550 N.ar    1  UNL1       -0.1901
     18 S           0.1609    3.3526    1.5265 S.2     1  UNL1        0.1165
     19 N          -0.9948    2.3654    0.8932 N.ar    1  UNL1       -0.1901
     20 C          -0.4036    1.2373    0.4600 C.ar    1  UNL1        0.1088
     21 C          -1.0492    0.0973   -0.1640 C.ar    1  UNL1        0.0192
     22 C          -2.4711   -0.1093   -0.2940 C.ar    1  UNL1       -0.0006
     23 C          -3.5563    0.5606    0.4782 C.ar    1  UNL1       -0.0134
     24 C          -3.5618    1.2267    1.6466 C.2     1  UNL1       -0.0719
     25 C           5.6048   -0.6335    0.0015 C.ar    1  UNL1        0.1264
     26 N           6.2660    0.3181    0.6415 N.ar    1  UNL1       -0.2458
     27 C           7.6206    0.0529    0.6292 C.ar    1  UNL1        0.0355
     28 C           7.9941   -1.1012   -0.0198 C.ar    1  UNL1       -0.0042
     29 S           6.6067   -1.8882   -0.6396 S.2     1  UNL1       -0.0742
     30 H          -5.2492    1.2683    2.9781 H       1  UNL1        0.0350
     31 H          -5.0384    2.7546    2.0044 H       1  UNL1        0.0350
     32 H          -6.8459    1.0780    0.8612 H       1  UNL1        0.0581
     33 H          -6.3703   -0.5411   -1.3052 H       1  UNL1        0.0624
     34 H          -4.6356   -1.8754   -2.4133 H       1  UNL1        0.0624
     35 H          -2.3874   -2.7016   -2.5329 H       1  UNL1        0.0624
     36 H          -0.0532   -2.5759   -2.0771 H       1  UNL1        0.0624
     37 H           1.9406   -2.6166   -1.5561 H       1  UNL1        0.0836
     38 H           3.7980    1.1809    0.8738 H       1  UNL1        0.0646
     39 H          -2.7192    1.4276    2.2864 H       1  UNL1        0.0581
     40 H           8.2996    0.7433    1.1148 H       1  UNL1        0.0835
     41 H           8.9854   -1.5080   -0.1559 H       1  UNL1        0.0709
@<TRIPOS>BOND
     1     1     2    1
     2     2     3    2
     3     3     4   ar
     4     4     5   ar
     5     5     6   ar
     6     6     7   ar
     7     7     8   ar
     8     8     9   ar
     9     9    10   ar
    10    10    11   ar
    11    11    12   ar
    12    12    13   ar
    13    13    14   ar
    14    14    15   ar
    15    15    16   ar
    16    16    17   ar
    17    17    18   ar
    18    18    19   ar
    19    19    20   ar
    20    20    21   ar
    21    21    22   ar
    22    22    23   ar
    23    23    24    2
    24    13    25    1
    25    25    26   ar
    26    26    27   ar
    27    27    28   ar
    28    28    29   ar
    29    24     1    1
    30    29    25   ar
    31    23     3   ar
    32    22     6   ar
    33    21     9   ar
    34    15    10   ar
    35    20    16   ar
    36     1    30    1
    37     1    31    1
    38     2    32    1
    39     4    33    1
    40     5    34    1
    41     7    35    1
    42     8    36    1
    43    11    37    1
    44    14    38    1
    45    24    39    1
    46    27    40    1
    47    28    41    1
