@<TRIPOS>MOLECULE
*****
 48 55 0 0 0
SMALL
GASTEIGER

@<TRIPOS>ATOM
      1 C          -6.2812    0.4741   -2.2394 C.3     1  UNL1       -0.0148
      2 C          -6.9661   -0.2617   -1.1321 C.2     1  UNL1       -0.0725
      3 C          -6.0479   -0.6696   -0.2461 C.ar    1  UNL1       -0.0212
      4 C          -6.2506   -1.5371    0.8775 C.ar    1  UNL1       -0.0537
      5 C          -5.1730   -1.9945    1.5338 C.ar    1  UNL1       -0.0534
      6 C          -3.7956   -1.5618    1.1781 C.ar    1  UNL1       -0.0166
      7 C          -2.7429   -2.1486    1.8732 C.ar    1  UNL1       -0.0534
      8 C          -1.4313   -1.7437    1.6385 C.ar    1  UNL1       -0.0513
      9 C          -1.1026   -0.6796    0.7813 C.ar    1  UNL1        0.0109
     10 C           0.2783   -0.3217    0.6773 C.ar    1  UNL1        0.0809
     11 N           1.2286   -1.0442    1.3138 N.ar    1  UNL1       -0.2537
     12 C           2.5401   -0.7026    1.2031 C.ar    1  UNL1        0.0360
     13 C           3.0235    0.3647    0.4617 C.ar    1  UNL1        0.0015
     14 C           2.0614    1.1318   -0.1855 C.ar    1  UNL1       -0.0412
     15 C           0.6925    0.7911   -0.0816 C.ar    1  UNL1        0.0297
     16 C          -0.3259    1.5691   -0.7001 C.ar    1  UNL1        0.1097
     17 N          -0.1229    2.6978   -1.4057 N.ar    1  UNL1       -0.1901
     18 S          -1.6104    3.2695   -1.8327 S.2     1  UNL1        0.1165
     19 N          -2.5667    2.1046   -1.1682 N.ar    1  UNL1       -0.1901
     20 C          -1.7772    1.1760   -0.6012 C.ar    1  UNL1        0.1089
     21 C          -2.1936   -0.0266    0.0926 C.ar    1  UNL1        0.0206
     22 C          -3.5309   -0.5562    0.2013 C.ar    1  UNL1       -0.0006
     23 C          -4.7153   -0.1983   -0.6302 C.ar    1  UNL1       -0.0134
     24 C          -4.8389    0.3950   -1.8308 C.2     1  UNL1       -0.0719
     25 C           4.4407    0.6839    0.3871 C.ar    1  UNL1       -0.0082
     26 C           4.9991    1.8958    0.8762 C.ar    1  UNL1       -0.0534
     27 C           6.3926    2.2254    0.8250 C.ar    1  UNL1       -0.0606
     28 C           7.3801    1.3828    0.2754 C.ar    1  UNL1       -0.0535
     29 C           6.8345    0.1976   -0.2161 C.ar    1  UNL1       -0.0103
     30 C           7.6054   -0.7711   -0.8097 C.ar    1  UNL1       -0.0166
     31 S           6.6459   -2.0970   -1.3310 S.2     1  UNL1       -0.1039
     32 C           5.1952   -1.3677   -0.7625 C.ar    1  UNL1       -0.0160
     33 C           5.4322   -0.1480   -0.1694 C.ar    1  UNL1       -0.0031
     34 H          -6.4428   -0.0251   -3.1994 H       1  UNL1        0.0350
     35 H          -6.6203    1.5121   -2.3012 H       1  UNL1        0.0350
     36 H          -8.0205   -0.4889   -1.1104 H       1  UNL1        0.0581
     37 H          -7.2532   -1.8497    1.1447 H       1  UNL1        0.0624
     38 H          -5.2953   -2.6795    2.3666 H       1  UNL1        0.0624
     39 H          -2.9237   -2.9377    2.5999 H       1  UNL1        0.0624
     40 H          -0.6470   -2.2622    2.1932 H       1  UNL1        0.0624
     41 H           3.2158   -1.3466    1.7628 H       1  UNL1        0.0836
     42 H           2.3620    1.9946   -0.7780 H       1  UNL1        0.0631
     43 H          -4.0480    0.7586   -2.4640 H       1  UNL1        0.0581
     44 H           4.3312    2.6290    1.3329 H       1  UNL1        0.0624
     45 H           6.7047    3.1858    1.2375 H       1  UNL1        0.0618
     46 H           8.4280    1.6504    0.2445 H       1  UNL1        0.0624
     47 H           8.6738   -0.7815   -0.9760 H       1  UNL1        0.0699
     48 H           4.2584   -1.8882   -0.9069 H       1  UNL1        0.0700
@<TRIPOS>BOND
     1     1     2    1
     2     2     3    2
     3     3     4   ar
     4     4     5   ar
     5     5     6   ar
     6     6     7   ar
     7     7     8   ar
     8     8     9   ar
     9     9    10   ar
    10    10    11   ar
    11    11    12   ar
    12    12    13   ar
    13    13    14   ar
    14    14    15   ar
    15    15    16   ar
    16    16    17   ar
    17    17    18   ar
    18    18    19   ar
    19    19    20   ar
    20    20    21   ar
    21    21    22   ar
    22    22    23   ar
    23    23    24    2
    24    13    25    1
    25    25    26   ar
    26    26    27   ar
    27    27    28   ar
    28    28    29   ar
    29    29    30   ar
    30    30    31   ar
    31    31    32   ar
    32    32    33   ar
    33    24     1    1
    34    33    25   ar
    35    23     3   ar
    36    33    29   ar
    37    22     6   ar
    38    21     9   ar
    39    15    10   ar
    40    20    16   ar
    41     1    34    1
    42     1    35    1
    43     2    36    1
    44     4    37    1
    45     5    38    1
    46     7    39    1
    47     8    40    1
    48    12    41    1
    49    14    42    1
    50    24    43    1
    51    26    44    1
    52    27    45    1
    53    28    46    1
    54    30    47    1
    55    32    48    1
