@<TRIPOS>MOLECULE
*****
 45 52 0 0 0
SMALL
GASTEIGER

@<TRIPOS>ATOM
      1 C          -4.4224    3.4965    1.0492 C.3     1  UNL1       -0.0148
      2 C          -5.6383    2.6616    0.7887 C.2     1  UNL1       -0.0725
      3 C          -5.2591    1.4177    0.4677 C.ar    1  UNL1       -0.0211
      4 C          -6.0958    0.2915    0.1413 C.ar    1  UNL1       -0.0537
      5 C          -5.5245   -0.8897   -0.1568 C.ar    1  UNL1       -0.0519
      6 C          -4.0496   -1.0591   -0.1572 C.ar    1  UNL1        0.0028
      7 C          -3.4813   -2.2892   -0.4688 C.ar    1  UNL1        0.0361
      8 N          -2.1605   -2.5665   -0.5028 N.ar    1  UNL1       -0.2522
      9 C          -1.3499   -1.5237   -0.1996 C.ar    1  UNL1        0.0975
     10 C          -1.8118   -0.2406    0.1288 C.ar    1  UNL1        0.0744
     11 N          -0.6945    0.5424    0.3688 N.ar    1  UNL1       -0.3524
     12 C           0.4725   -0.1778    0.2138 C.ar    1  UNL1        0.0503
     13 C           1.8388    0.1883    0.3496 C.ar    1  UNL1       -0.0287
     14 C           2.8724   -0.7632    0.1335 C.ar    1  UNL1        0.0049
     15 C           4.2746   -0.4441    0.2635 C.ar    1  UNL1        0.0628
     16 S           5.3773   -1.2853    1.3026 S.2     1  UNL1       -0.0923
     17 C           6.7260   -0.2654    0.8817 C.ar    1  UNL1       -0.0129
     18 C           6.2784    0.6631    0.0105 C.ar    1  UNL1        0.0278
     19 C           6.7363    1.7680   -0.7235 C.ar    1  UNL1       -0.0156
     20 C           5.6120    2.2276   -1.4221 C.ar    1  UNL1        0.0932
     21 O           4.4600    1.4983   -1.1888 O.2     1  UNL1       -0.4618
     22 C           4.9474    0.5698   -0.3182 C.ar    1  UNL1        0.1495
     23 C           2.3827   -2.0254   -0.2287 C.ar    1  UNL1        0.0289
     24 C           3.0864   -3.1635   -0.5581 C.ar    1  UNL1        0.1000
     25 O           2.2285   -4.1943   -0.8656 O.2     1  UNL1       -0.4698
     26 C           0.9477   -3.7152   -0.7475 C.ar    1  UNL1        0.1001
     27 C           1.0398   -2.4137   -0.3743 C.ar    1  UNL1        0.0316
     28 C           0.0384   -1.4427   -0.1359 C.ar    1  UNL1        0.0364
     29 C          -3.1875    0.0202    0.1572 C.ar    1  UNL1        0.0164
     30 C          -3.7980    1.3176    0.4855 C.ar    1  UNL1       -0.0120
     31 C          -3.2999    2.5196    0.8224 C.2     1  UNL1       -0.0719
     32 H          -4.4139    3.8725    2.0764 H       1  UNL1        0.0350
     33 H          -4.3610    4.3344    0.3486 H       1  UNL1        0.0350
     34 H          -6.6532    3.0223    0.8543 H       1  UNL1        0.0581
     35 H          -7.1735    0.4121    0.1407 H       1  UNL1        0.0624
     36 H          -6.1382   -1.7495   -0.4052 H       1  UNL1        0.0624
     37 H          -4.1108   -3.1413   -0.7157 H       1  UNL1        0.0836
     38 H          -0.7180    1.5164    0.6223 H       1  UNL1        0.1660
     39 H           2.0982    1.2089    0.6248 H       1  UNL1        0.0645
     40 H           7.7069   -0.4239    1.3064 H       1  UNL1        0.0701
     41 H           7.7281    2.1947   -0.7634 H       1  UNL1        0.0655
     42 H           5.4756    3.0495   -2.1131 H       1  UNL1        0.1030
     43 H           4.1348   -3.4160   -0.6293 H       1  UNL1        0.1036
     44 H           0.1488   -4.4090   -0.9662 H       1  UNL1        0.1036
     45 H          -2.2699    2.8062    0.9308 H       1  UNL1        0.0581
@<TRIPOS>BOND
     1     1     2    1
     2     2     3    2
     3     3     4   ar
     4     4     5   ar
     5     5     6   ar
     6     6     7   ar
     7     7     8   ar
     8     8     9   ar
     9     9    10   ar
    10    10    11   ar
    11    11    12   ar
    12    12    13   ar
    13    13    14   ar
    14    14    15    1
    15    15    16   ar
    16    16    17   ar
    17    17    18   ar
    18    18    19   ar
    19    19    20   ar
    20    20    21   ar
    21    21    22   ar
    22    14    23   ar
    23    23    24   ar
    24    24    25   ar
    25    25    26   ar
    26    26    27   ar
    27    27    28   ar
    28    10    29   ar
    29    29    30   ar
    30    30    31    2
    31    31     1    1
    32    30     3   ar
    33    29     6   ar
    34    28     9   ar
    35    28    12   ar
    36    22    15   ar
    37    27    23   ar
    38    22    18   ar
    39     1    32    1
    40     1    33    1
    41     2    34    1
    42     4    35    1
    43     5    36    1
    44     7    37    1
    45    11    38    1
    46    13    39    1
    47    17    40    1
    48    19    41    1
    49    20    42    1
    50    24    43    1
    51    26    44    1
    52    31    45    1
