@<TRIPOS>MOLECULE
*****
 41 47 0 0 0
SMALL
GASTEIGER

@<TRIPOS>ATOM
      1 C          -5.0366    2.7857   -0.8789 C.3     1  UNL1       -0.0148
      2 C          -5.9500    1.6334   -0.5869 C.2     1  UNL1       -0.0725
      3 C          -5.2163    0.5553   -0.2800 C.ar    1  UNL1       -0.0211
      4 C          -5.6770   -0.7607    0.0658 C.ar    1  UNL1       -0.0537
      5 C          -4.7703   -1.7131    0.3423 C.ar    1  UNL1       -0.0519
      6 C          -3.3139   -1.4336    0.2977 C.ar    1  UNL1        0.0029
      7 C          -2.4169   -2.4390    0.5883 C.ar    1  UNL1        0.0361
      8 N          -1.0821   -2.2723    0.5716 N.ar    1  UNL1       -0.2521
      9 C          -0.5629   -1.0635    0.2560 C.ar    1  UNL1        0.0996
     10 C          -1.3842    0.0447   -0.0607 C.ar    1  UNL1        0.0981
     11 N          -0.8540    1.2518   -0.3759 N.ar    1  UNL1       -0.2522
     12 C           0.4832    1.4117   -0.3901 C.ar    1  UNL1        0.0362
     13 C           1.3914    0.4126   -0.0993 C.ar    1  UNL1        0.0052
     14 C           2.7848    0.6866   -0.1388 C.ar    1  UNL1       -0.0396
     15 C           3.8019   -0.2543    0.1487 C.ar    1  UNL1        0.0480
     16 C           5.2212    0.0810    0.1017 C.ar    1  UNL1        0.1651
     17 N           6.0309   -0.4329    1.0288 N.ar    1  UNL1       -0.2159
     18 C           7.3026   -0.0570    0.9310 C.ar    1  UNL1        0.1200
     19 N           7.8022    0.7834    0.0291 N.ar    1  UNL1       -0.2241
     20 C           6.8986    1.2534   -0.8254 C.ar    1  UNL1        0.1200
     21 N           5.6008    0.9558   -0.8382 N.ar    1  UNL1       -0.2159
     22 C           3.3315   -1.5565    0.4683 C.ar    1  UNL1        0.1112
     23 N           4.0869   -2.6384    0.7317 N.ar    1  UNL1       -0.1900
     24 S           3.0652   -3.8936    1.0495 S.2     1  UNL1        0.1165
     25 N           1.6096   -3.1513    0.8432 N.ar    1  UNL1       -0.1901
     26 C           1.8383   -1.8664    0.5162 C.ar    1  UNL1        0.1104
     27 C           0.8427   -0.8541    0.2295 C.ar    1  UNL1        0.0392
     28 C          -2.7785   -0.1621   -0.0345 C.ar    1  UNL1        0.0184
     29 C          -3.7927    0.8829   -0.3384 C.ar    1  UNL1       -0.0119
     30 C          -3.6783    2.1767   -0.6856 C.2     1  UNL1       -0.0719
     31 H          -5.1662    3.1421   -1.9050 H       1  UNL1        0.0350
     32 H          -5.2028    3.6088   -0.1779 H       1  UNL1        0.0350
     33 H          -7.0271    1.6842   -0.6235 H       1  UNL1        0.0581
     34 H          -6.7414   -0.9643    0.0982 H       1  UNL1        0.0624
     35 H          -5.0933   -2.7152    0.6062 H       1  UNL1        0.0624
     36 H          -2.7420   -3.4416    0.8522 H       1  UNL1        0.0836
     37 H           0.8042    2.4171   -0.6551 H       1  UNL1        0.0836
     38 H           3.1054    1.6991   -0.4024 H       1  UNL1        0.0632
     39 H           7.9943   -0.4720    1.6561 H       1  UNL1        0.1048
     40 H           7.2518    1.9462   -1.5818 H       1  UNL1        0.1048
     41 H          -2.7610    2.7293   -0.8155 H       1  UNL1        0.0581
@<TRIPOS>BOND
     1     1     2    1
     2     2     3    2
     3     3     4   ar
     4     4     5   ar
     5     5     6   ar
     6     6     7   ar
     7     7     8   ar
     8     8     9   ar
     9     9    10   ar
    10    10    11   ar
    11    11    12   ar
    12    12    13   ar
    13    13    14   ar
    14    14    15   ar
    15    15    16    1
    16    16    17   ar
    17    17    18   ar
    18    18    19   ar
    19    19    20   ar
    20    20    21   ar
    21    15    22   ar
    22    22    23   ar
    23    23    24   ar
    24    24    25   ar
    25    25    26   ar
    26    26    27   ar
    27    10    28   ar
    28    28    29   ar
    29    29    30    2
    30    30     1    1
    31    29     3   ar
    32    28     6   ar
    33    27     9   ar
    34    27    13   ar
    35    21    16   ar
    36    26    22   ar
    37     1    31    1
    38     1    32    1
    39     2    33    1
    40     4    34    1
    41     5    35    1
    42     7    36    1
    43    12    37    1
    44    14    38    1
    45    18    39    1
    46    20    40    1
    47    30    41    1
