@<TRIPOS>MOLECULE
*****
 49 56 0 0 0
SMALL
GASTEIGER

@<TRIPOS>ATOM
      1 C          -6.1576    1.1269   -1.2222 C.3     1  UNL1       -0.0148
      2 C          -6.7302    0.5570    0.0389 C.2     1  UNL1       -0.0725
      3 C          -5.7293    0.1326    0.8215 C.ar    1  UNL1       -0.0212
      4 C          -5.8089   -0.3217    2.1821 C.ar    1  UNL1       -0.0537
      5 C          -4.6660   -0.4919    2.8684 C.ar    1  UNL1       -0.0520
      6 C          -3.3420   -0.3023    2.2249 C.ar    1  UNL1        0.0014
      7 C          -2.1908   -0.3941    2.9812 C.ar    1  UNL1        0.0360
      8 N          -0.9380   -0.2797    2.4861 N.ar    1  UNL1       -0.2537
      9 C          -0.7343   -0.1769    1.1599 C.ar    1  UNL1        0.0806
     10 C           0.6441   -0.1209    0.6652 C.ar    1  UNL1        0.0195
     11 C           1.8399   -0.0800    1.4395 C.ar    1  UNL1        0.0302
     12 C           1.9525   -0.0932    2.8094 C.ar    1  UNL1        0.1001
     13 O           3.2651   -0.0718    3.1806 O.2     1  UNL1       -0.4698
     14 C           4.0111   -0.0431    2.0408 C.ar    1  UNL1        0.1000
     15 C           3.1898   -0.0180    0.9404 C.ar    1  UNL1        0.0297
     16 C           3.5770    0.0118   -0.4030 C.ar    1  UNL1        0.0117
     17 C           2.4296   -0.0643   -1.2273 C.ar    1  UNL1       -0.0434
     18 C           1.0612   -0.1194   -0.7289 C.ar    1  UNL1       -0.0038
     19 C          -0.0839   -0.2299   -1.5313 C.ar    1  UNL1        0.0283
     20 C          -0.1180   -0.3901   -2.8938 C.ar    1  UNL1        0.1000
     21 O          -1.4026   -0.5899   -3.2999 O.2     1  UNL1       -0.4698
     22 C          -2.1885   -0.5488   -2.1859 C.ar    1  UNL1        0.1001
     23 C          -1.4378   -0.2482   -1.0747 C.ar    1  UNL1        0.0302
     24 C          -1.8713   -0.1436    0.2803 C.ar    1  UNL1        0.0200
     25 C          -3.1882   -0.0634    0.8412 C.ar    1  UNL1        0.0008
     26 C          -4.4446    0.3037    0.1423 C.ar    1  UNL1       -0.0134
     27 C          -4.6794    0.9582   -1.0084 C.2     1  UNL1       -0.0719
     28 C           4.9399    0.0878   -0.9143 C.ar    1  UNL1        0.0717
     29 C           5.8810    1.0006   -0.4397 C.ar    1  UNL1       -0.0357
     30 C           7.1569    1.0165   -0.9995 C.ar    1  UNL1       -0.0583
     31 C           7.4613    0.1300   -2.0233 C.ar    1  UNL1       -0.0436
     32 C           6.4693   -0.7330   -2.4524 C.ar    1  UNL1        0.0283
     33 N           5.2233   -0.7666   -1.9302 N.ar    1  UNL1       -0.2550
     34 H          -6.4970    0.5736   -2.1024 H       1  UNL1        0.0350
     35 H          -6.4183    2.1843   -1.3266 H       1  UNL1        0.0350
     36 H          -7.7778    0.5785    0.2970 H       1  UNL1        0.0581
     37 H          -6.7779   -0.4635    2.6471 H       1  UNL1        0.0624
     38 H          -4.6919   -0.7979    3.9094 H       1  UNL1        0.0624
     39 H          -2.2307   -0.5551    4.0555 H       1  UNL1        0.0836
     40 H           1.2502   -0.1274    3.6302 H       1  UNL1        0.1036
     41 H           5.0805   -0.0500    2.1965 H       1  UNL1        0.1036
     42 H           2.5929   -0.0806   -2.3061 H       1  UNL1        0.0631
     43 H           0.6249   -0.4366   -3.6778 H       1  UNL1        0.1036
     44 H          -3.2281   -0.7777   -2.3686 H       1  UNL1        0.1036
     45 H          -3.9467    1.3598   -1.6899 H       1  UNL1        0.0581
     46 H           5.6287    1.7085    0.3435 H       1  UNL1        0.0639
     47 H           7.9032    1.7202   -0.6417 H       1  UNL1        0.0619
     48 H           8.4443    0.1157   -2.4803 H       1  UNL1        0.0633
     49 H           6.6530   -1.4430   -3.2538 H       1  UNL1        0.0830
@<TRIPOS>BOND
     1     1     2    1
     2     2     3    2
     3     3     4   ar
     4     4     5   ar
     5     5     6   ar
     6     6     7   ar
     7     7     8   ar
     8     8     9   ar
     9     9    10   ar
    10    10    11   ar
    11    11    12   ar
    12    12    13   ar
    13    13    14   ar
    14    14    15   ar
    15    15    16   ar
    16    16    17   ar
    17    17    18   ar
    18    18    19   ar
    19    19    20   ar
    20    20    21   ar
    21    21    22   ar
    22    22    23   ar
    23    23    24   ar
    24    24    25   ar
    25    25    26   ar
    26    26    27    2
    27    16    28    1
    28    28    29   ar
    29    29    30   ar
    30    30    31   ar
    31    31    32   ar
    32    32    33   ar
    33    27     1    1
    34    33    28   ar
    35    26     3   ar
    36    25     6   ar
    37    24     9   ar
    38    18    10   ar
    39    23    19   ar
    40    15    11   ar
    41     1    34    1
    42     1    35    1
    43     2    36    1
    44     4    37    1
    45     5    38    1
    46     7    39    1
    47    12    40    1
    48    14    41    1
    49    17    42    1
    50    20    43    1
    51    22    44    1
    52    27    45    1
    53    29    46    1
    54    30    47    1
    55    31    48    1
    56    32    49    1
