@<TRIPOS>MOLECULE
*****
 44 50 0 0 0
SMALL
GASTEIGER

@<TRIPOS>ATOM
      1 C          -5.3975    1.9869    0.8914 C.3     1  UNL1       -0.0148
      2 C          -6.1342    0.8656    0.2261 C.2     1  UNL1       -0.0725
      3 C          -5.2491   -0.0335   -0.2241 C.ar    1  UNL1       -0.0212
      4 C          -5.5184   -1.3357   -0.7676 C.ar    1  UNL1       -0.0537
      5 C          -4.4877   -2.1774   -0.9555 C.ar    1  UNL1       -0.0520
      6 C          -3.0881   -1.7572   -0.6947 C.ar    1  UNL1        0.0014
      7 C          -2.0624   -2.6754   -0.8152 C.ar    1  UNL1        0.0360
      8 N          -0.7517   -2.3884   -0.6466 N.ar    1  UNL1       -0.2537
      9 C          -0.3567   -1.1181   -0.4500 C.ar    1  UNL1        0.0814
     10 C           1.0681   -0.8801   -0.3461 C.ar    1  UNL1        0.0269
     11 C           1.9902   -1.9289   -0.3556 C.ar    1  UNL1        0.0381
     12 N           3.3443   -1.8097   -0.2622 N.ar    1  UNL1       -0.2528
     13 C           3.8688   -0.5703   -0.1529 C.ar    1  UNL1        0.0877
     14 C           3.0808    0.5673   -0.1456 C.ar    1  UNL1       -0.0258
     15 C           1.6806    0.4011   -0.2401 C.ar    1  UNL1       -0.0016
     16 C           0.7070    1.4101   -0.2971 C.ar    1  UNL1        0.0284
     17 C           0.9174    2.7637   -0.3482 C.ar    1  UNL1        0.1000
     18 O          -0.2736    3.4013   -0.5274 O.2     1  UNL1       -0.4698
     19 C          -1.2431    2.4413   -0.5823 C.ar    1  UNL1        0.1001
     20 C          -0.7017    1.1975   -0.3660 C.ar    1  UNL1        0.0302
     21 C          -1.3482   -0.0736   -0.3723 C.ar    1  UNL1        0.0200
     22 C          -2.7358   -0.4300   -0.3591 C.ar    1  UNL1        0.0008
     23 C          -3.8830    0.4294    0.0224 C.ar    1  UNL1       -0.0134
     24 C          -3.9635    1.5603    0.7450 C.2     1  UNL1       -0.0719
     25 C           5.3290   -0.5431   -0.0584 C.ar    1  UNL1        0.0649
     26 C           6.2509   -1.5500   -0.3093 C.ar    1  UNL1       -0.0349
     27 C           7.5498   -1.0424   -0.0741 C.ar    1  UNL1       -0.0438
     28 C           7.4044    0.2630    0.3293 C.ar    1  UNL1        0.0022
     29 N           6.0644    0.5524    0.3445 N.ar    1  UNL1       -0.3595
     30 H          -5.6753    2.0649    1.9467 H       1  UNL1        0.0350
     31 H          -5.5810    2.9410    0.3891 H       1  UNL1        0.0350
     32 H          -7.2089    0.7697    0.2054 H       1  UNL1        0.0581
     33 H          -6.5415   -1.6379   -0.9612 H       1  UNL1        0.0624
     34 H          -4.6614   -3.1818   -1.3286 H       1  UNL1        0.0624
     35 H          -2.2617   -3.7185   -1.0486 H       1  UNL1        0.0836
     36 H           1.6557   -2.9622   -0.4391 H       1  UNL1        0.0836
     37 H           3.5141    1.5563   -0.0873 H       1  UNL1        0.0646
     38 H           1.7853    3.4072   -0.3241 H       1  UNL1        0.1036
     39 H          -2.2299    2.8200   -0.8048 H       1  UNL1        0.1036
     40 H          -3.1515    2.0950    1.2106 H       1  UNL1        0.0581
     41 H           5.9961   -2.5519   -0.6337 H       1  UNL1        0.0639
     42 H           8.4852   -1.5759   -0.1823 H       1  UNL1        0.0633
     43 H           8.1357    1.0074    0.6139 H       1  UNL1        0.0807
     44 H           5.6780    1.4406    0.6298 H       1  UNL1        0.1654
@<TRIPOS>BOND
     1     1     2    1
     2     2     3    2
     3     3     4   ar
     4     4     5   ar
     5     5     6   ar
     6     6     7   ar
     7     7     8   ar
     8     8     9   ar
     9     9    10   ar
    10    10    11   ar
    11    11    12   ar
    12    12    13   ar
    13    13    14   ar
    14    14    15   ar
    15    15    16   ar
    16    16    17   ar
    17    17    18   ar
    18    18    19   ar
    19    19    20   ar
    20    20    21   ar
    21    21    22   ar
    22    22    23   ar
    23    23    24    2
    24    13    25    1
    25    25    26   ar
    26    26    27   ar
    27    27    28   ar
    28    28    29   ar
    29    24     1    1
    30    29    25   ar
    31    23     3   ar
    32    22     6   ar
    33    21     9   ar
    34    15    10   ar
    35    20    16   ar
    36     1    30    1
    37     1    31    1
    38     2    32    1
    39     4    33    1
    40     5    34    1
    41     7    35    1
    42    11    36    1
    43    14    37    1
    44    17    38    1
    45    19    39    1
    46    24    40    1
    47    26    41    1
    48    27    42    1
    49    28    43    1
    50    29    44    1
