@<TRIPOS>MOLECULE
*****
 43 49 0 0 0
SMALL
GASTEIGER

@<TRIPOS>ATOM
      1 C           5.7161    1.4350   -1.6599 C.3     1  UNL1       -0.0148
      2 C           6.5887    0.9214   -0.5572 C.2     1  UNL1       -0.0725
      3 C           5.8201    0.3888    0.4019 C.ar    1  UNL1       -0.0212
      4 C           6.2446   -0.2172    1.6358 C.ar    1  UNL1       -0.0537
      5 C           5.3178   -0.7007    2.4812 C.ar    1  UNL1       -0.0520
      6 C           3.8692   -0.6228    2.1695 C.ar    1  UNL1        0.0019
      7 C           2.9421   -1.1299    3.0616 C.ar    1  UNL1        0.0361
      8 N           1.6113   -1.1175    2.8913 N.ar    1  UNL1       -0.2517
      9 C           1.1466   -0.5549    1.7364 C.ar    1  UNL1        0.1045
     10 C          -0.2494   -0.4550    1.3850 C.ar    1  UNL1        0.1039
     11 N          -1.3017   -0.8964    2.1367 N.ar    1  UNL1       -0.2517
     12 C          -2.5286   -0.7005    1.6110 C.ar    1  UNL1        0.0361
     13 C          -2.8147   -0.0984    0.3902 C.ar    1  UNL1        0.0020
     14 C          -1.7261    0.3522   -0.3620 C.ar    1  UNL1       -0.0367
     15 C          -0.4329    0.1622    0.1537 C.ar    1  UNL1        0.0409
     16 S           1.0576    0.6066   -0.5465 S.2     1  UNL1       -0.0844
     17 C           1.9955   -0.0090    0.7608 C.ar    1  UNL1        0.0485
     18 C           3.3924   -0.0377    0.9708 C.ar    1  UNL1        0.0068
     19 C           4.4051    0.4965    0.0355 C.ar    1  UNL1       -0.0129
     20 C           4.3368    1.1038   -1.1621 C.2     1  UNL1       -0.0719
     21 C          -4.1841    0.0706   -0.0689 C.ar    1  UNL1       -0.0057
     22 C          -5.1989    0.7730    0.6399 C.ar    1  UNL1       -0.0533
     23 C          -6.5552    0.9421    0.1781 C.ar    1  UNL1       -0.0605
     24 C          -7.0520    0.4255   -1.0399 C.ar    1  UNL1       -0.0510
     25 C          -6.0507   -0.2613   -1.7109 C.ar    1  UNL1        0.0204
     26 C          -6.1620   -0.9070   -2.9126 C.ar    1  UNL1        0.0994
     27 O          -4.9618   -1.4802   -3.2335 O.2     1  UNL1       -0.4698
     28 C          -4.0834   -1.1946   -2.2230 C.ar    1  UNL1        0.1000
     29 C          -4.7056   -0.4329   -1.2660 C.ar    1  UNL1        0.0276
     30 H           5.9275    0.9223   -2.6028 H       1  UNL1        0.0350
     31 H           5.8382    2.5142   -1.7906 H       1  UNL1        0.0350
     32 H           7.6662    0.9798   -0.5535 H       1  UNL1        0.0581
     33 H           7.3029   -0.2750    1.8651 H       1  UNL1        0.0624
     34 H           5.6177   -1.1617    3.4170 H       1  UNL1        0.0624
     35 H           3.2595   -1.5887    3.9954 H       1  UNL1        0.0836
     36 H          -3.3348   -1.0747    2.2407 H       1  UNL1        0.0836
     37 H          -1.8692    0.8484   -1.3181 H       1  UNL1        0.0636
     38 H           3.4561    1.3451   -1.7320 H       1  UNL1        0.0581
     39 H          -4.9427    1.2318    1.5974 H       1  UNL1        0.0624
     40 H          -7.2388    1.5076    0.8135 H       1  UNL1        0.0618
     41 H          -8.0708    0.5555   -1.3754 H       1  UNL1        0.0625
     42 H          -6.9576   -1.0610   -3.6277 H       1  UNL1        0.1035
     43 H          -3.0910   -1.6049   -2.3469 H       1  UNL1        0.1036
@<TRIPOS>BOND
     1     1     2    1
     2     2     3    2
     3     3     4   ar
     4     4     5   ar
     5     5     6   ar
     6     6     7   ar
     7     7     8   ar
     8     8     9   ar
     9     9    10   ar
    10    10    11   ar
    11    11    12   ar
    12    12    13   ar
    13    13    14   ar
    14    14    15   ar
    15    15    16   ar
    16    16    17   ar
    17    17    18   ar
    18    18    19   ar
    19    19    20    2
    20    13    21    1
    21    21    22   ar
    22    22    23   ar
    23    23    24   ar
    24    24    25   ar
    25    25    26   ar
    26    26    27   ar
    27    27    28   ar
    28    28    29   ar
    29    20     1    1
    30    29    21   ar
    31    19     3   ar
    32    29    25   ar
    33    18     6   ar
    34    17     9   ar
    35    15    10   ar
    36     1    30    1
    37     1    31    1
    38     2    32    1
    39     4    33    1
    40     5    34    1
    41     7    35    1
    42    12    36    1
    43    14    37    1
    44    20    38    1
    45    22    39    1
    46    23    40    1
    47    24    41    1
    48    26    42    1
    49    28    43    1
