@<TRIPOS>MOLECULE
*****
 47 54 0 0 0
SMALL
GASTEIGER

@<TRIPOS>ATOM
      1 C          -5.7210   -0.6708   -1.9497 C.3     1  UNL1       -0.0148
      2 C          -6.3810   -0.3337   -0.6484 C.2     1  UNL1       -0.0725
      3 C          -5.4379   -0.0858    0.2702 C.ar    1  UNL1       -0.0212
      4 C          -5.6182    0.1194    1.6799 C.ar    1  UNL1       -0.0537
      5 C          -4.5319    0.1415    2.4702 C.ar    1  UNL1       -0.0520
      6 C          -3.1585    0.0372    1.9115 C.ar    1  UNL1        0.0014
      7 C          -2.0792   -0.0304    2.7889 C.ar    1  UNL1        0.0361
      8 N          -0.7927   -0.0982    2.4017 N.ar    1  UNL1       -0.2506
      9 C          -0.5696    0.0096    1.0725 C.ar    1  UNL1        0.1149
     10 C           0.8182   -0.0899    0.6330 C.ar    1  UNL1        0.1621
     11 O           1.8249   -0.4016    1.4841 O.2     1  UNL1       -0.4521
     12 C           2.9883   -0.4349    0.7412 C.ar    1  UNL1        0.1449
     13 C           2.6824   -0.1560   -0.5904 C.ar    1  UNL1       -0.0068
     14 C           1.2959    0.0605   -0.6453 C.ar    1  UNL1        0.0303
     15 C           0.3689    0.4097   -1.6520 C.ar    1  UNL1       -0.0103
     16 C           0.5702    0.8102   -2.9132 C.2     1  UNL1       -0.0718
     17 C          -0.7288    1.2857   -3.4879 C.3     1  UNL1       -0.0148
     18 C          -1.6805    1.1024   -2.3388 C.2     1  UNL1       -0.0719
     19 C          -1.0623    0.5163   -1.2971 C.ar    1  UNL1       -0.0112
     20 C          -1.5705    0.1778    0.0727 C.ar    1  UNL1        0.0197
     21 C          -2.9008    0.0415    0.5057 C.ar    1  UNL1        0.0008
     22 C          -4.1079   -0.1605   -0.3338 C.ar    1  UNL1       -0.0134
     23 C          -4.2622   -0.5769   -1.6030 C.2     1  UNL1       -0.0719
     24 C           4.2579   -0.7365    1.3277 C.ar    1  UNL1        0.0783
     25 S           4.4474   -1.8702    2.6310 S.2     1  UNL1       -0.0909
     26 C           6.1751   -1.6896    2.6878 C.ar    1  UNL1       -0.0144
     27 C           6.5172   -0.7776    1.7562 C.ar    1  UNL1        0.0074
     28 C           7.6531   -0.1117    1.2371 C.ar    1  UNL1       -0.0361
     29 C           7.1918    0.7725    0.2393 C.ar    1  UNL1        0.0028
     30 N           5.8071    0.7065    0.0935 N.ar    1  UNL1       -0.3597
     31 C           5.4810   -0.2466    1.0184 C.ar    1  UNL1        0.0644
     32 H          -5.9819   -1.6840   -2.2695 H       1  UNL1        0.0350
     33 H          -5.9897    0.0447   -2.7321 H       1  UNL1        0.0350
     34 H          -7.4454   -0.3745   -0.4757 H       1  UNL1        0.0581
     35 H          -6.6191    0.1981    2.0889 H       1  UNL1        0.0624
     36 H          -4.6399    0.2585    3.5440 H       1  UNL1        0.0624
     37 H          -2.2239   -0.0515    3.8659 H       1  UNL1        0.0836
     38 H           3.3829   -0.1350   -1.4121 H       1  UNL1        0.0662
     39 H           1.5214    0.8780   -3.4179 H       1  UNL1        0.0581
     40 H          -0.6653    2.3392   -3.7760 H       1  UNL1        0.0350
     41 H          -1.0286    0.6843   -4.3510 H       1  UNL1        0.0350
     42 H          -2.7057    1.4364   -2.3756 H       1  UNL1        0.0581
     43 H          -3.4814   -0.8492   -2.2947 H       1  UNL1        0.0581
     44 H           6.7799   -2.2424    3.3916 H       1  UNL1        0.0700
     45 H           8.6852   -0.2310    1.5388 H       1  UNL1        0.0639
     46 H           7.7505    1.4624   -0.3802 H       1  UNL1        0.0807
     47 H           5.1845    1.2315   -0.5073 H       1  UNL1        0.1654
@<TRIPOS>BOND
     1     1     2    1
     2     2     3    2
     3     3     4   ar
     4     4     5   ar
     5     5     6   ar
     6     6     7   ar
     7     7     8   ar
     8     8     9   ar
     9     9    10   ar
    10    10    11   ar
    11    11    12   ar
    12    12    13   ar
    13    13    14   ar
    14    14    15   ar
    15    15    16    2
    16    16    17    1
    17    17    18    1
    18    18    19    2
    19    19    20   ar
    20    20    21   ar
    21    21    22   ar
    22    22    23    2
    23    12    24    1
    24    24    25   ar
    25    25    26   ar
    26    26    27   ar
    27    27    28   ar
    28    28    29   ar
    29    29    30   ar
    30    30    31   ar
    31    23     1    1
    32    31    24   ar
    33    22     3   ar
    34    31    27   ar
    35    21     6   ar
    36    20     9   ar
    37    14    10   ar
    38    19    15   ar
    39     1    32    1
    40     1    33    1
    41     2    34    1
    42     4    35    1
    43     5    36    1
    44     7    37    1
    45    13    38    1
    46    16    39    1
    47    17    40    1
    48    17    41    1
    49    18    42    1
    50    23    43    1
    51    26    44    1
    52    28    45    1
    53    29    46    1
    54    30    47    1
