@<TRIPOS>MOLECULE
*****
 43 49 0 0 0
SMALL
GASTEIGER

@<TRIPOS>ATOM
      1 C          -5.5735    1.5638   -1.0231 C.3     1  UNL1       -0.0148
      2 C          -6.0994    0.4987   -0.1113 C.2     1  UNL1       -0.0725
      3 C          -5.0685   -0.1774    0.4127 C.ar    1  UNL1       -0.0212
      4 C          -5.1156   -1.3789    1.1984 C.ar    1  UNL1       -0.0537
      5 C          -3.9665   -2.0295    1.4475 C.ar    1  UNL1       -0.0520
      6 C          -2.6549   -1.4905    1.0036 C.ar    1  UNL1        0.0014
      7 C          -1.5049   -2.2425    1.2190 C.ar    1  UNL1        0.0361
      8 N          -0.2565   -1.8379    0.9102 N.ar    1  UNL1       -0.2506
      9 C          -0.1195   -0.5709    0.4466 C.ar    1  UNL1        0.1150
     10 C           1.2288   -0.1852    0.2088 C.ar    1  UNL1        0.1622
     11 O           2.3638   -0.9537    0.3281 O.2     1  UNL1       -0.4511
     12 C           3.4430   -0.1582    0.0098 C.ar    1  UNL1        0.1545
     13 C           3.0223    1.1263   -0.3067 C.ar    1  UNL1       -0.0058
     14 C           1.6428    1.0675   -0.1763 C.ar    1  UNL1        0.0337
     15 C           0.6327    2.0352   -0.2991 C.ar    1  UNL1        0.0313
     16 C           0.7253    3.3659   -0.5456 C.ar    1  UNL1        0.1001
     17 O          -0.5392    3.8794   -0.4293 O.2     1  UNL1       -0.4698
     18 C          -1.3809    2.8394   -0.1138 C.ar    1  UNL1        0.1001
     19 C          -0.7040    1.6388   -0.0895 C.ar    1  UNL1        0.0304
     20 C          -1.2086    0.3334    0.2282 C.ar    1  UNL1        0.0230
     21 C          -2.5212   -0.2073    0.4004 C.ar    1  UNL1        0.0009
     22 C          -3.8012    0.4062   -0.0271 C.ar    1  UNL1       -0.0134
     23 C          -4.0869    1.3636   -0.9264 C.2     1  UNL1       -0.0719
     24 C           4.7567   -0.7865    0.0728 C.ar    1  UNL1        0.1060
     25 C           4.9364   -2.1196    0.4292 C.ar    1  UNL1       -0.0327
     26 C           6.2294   -2.6360    0.4626 C.ar    1  UNL1       -0.0582
     27 C           7.2999   -1.8108    0.1409 C.ar    1  UNL1       -0.0436
     28 C           7.0323   -0.4962   -0.2028 C.ar    1  UNL1        0.0284
     29 N           5.7904    0.0343   -0.2446 N.ar    1  UNL1       -0.2519
     30 H          -5.9222    1.4076   -2.0483 H       1  UNL1        0.0350
     31 H          -5.8625    2.5621   -0.6822 H       1  UNL1        0.0350
     32 H          -7.1459    0.2689    0.0178 H       1  UNL1        0.0581
     33 H          -6.0719   -1.7701    1.5267 H       1  UNL1        0.0624
     34 H          -3.9750   -2.9597    2.0068 H       1  UNL1        0.0624
     35 H          -1.5544   -3.2364    1.6568 H       1  UNL1        0.0836
     36 H           3.6645    1.9518   -0.5773 H       1  UNL1        0.0662
     37 H           1.5140    4.0741   -0.7544 H       1  UNL1        0.1036
     38 H          -2.3972    3.1469    0.0833 H       1  UNL1        0.1036
     39 H          -3.3908    1.9023   -1.5481 H       1  UNL1        0.0581
     40 H           4.0885   -2.7504    0.6778 H       1  UNL1        0.0640
     41 H           6.3963   -3.6735    0.7377 H       1  UNL1        0.0619
     42 H           8.3183   -2.1826    0.1575 H       1  UNL1        0.0633
     43 H           7.8357    0.1876   -0.4622 H       1  UNL1        0.0830
@<TRIPOS>BOND
     1     1     2    1
     2     2     3    2
     3     3     4   ar
     4     4     5   ar
     5     5     6   ar
     6     6     7   ar
     7     7     8   ar
     8     8     9   ar
     9     9    10   ar
    10    10    11   ar
    11    11    12   ar
    12    12    13   ar
    13    13    14   ar
    14    14    15   ar
    15    15    16   ar
    16    16    17   ar
    17    17    18   ar
    18    18    19   ar
    19    19    20   ar
    20    20    21   ar
    21    21    22   ar
    22    22    23    2
    23    12    24    1
    24    24    25   ar
    25    25    26   ar
    26    26    27   ar
    27    27    28   ar
    28    28    29   ar
    29    23     1    1
    30    29    24   ar
    31    22     3   ar
    32    21     6   ar
    33    20     9   ar
    34    14    10   ar
    35    19    15   ar
    36     1    30    1
    37     1    31    1
    38     2    32    1
    39     4    33    1
    40     5    34    1
    41     7    35    1
    42    13    36    1
    43    16    37    1
    44    18    38    1
    45    23    39    1
    46    25    40    1
    47    26    41    1
    48    27    42    1
    49    28    43    1
