@<TRIPOS>MOLECULE
*****
 36 41 0 0 0
SMALL
GASTEIGER

@<TRIPOS>ATOM
      1 SI          0.5896   -3.3276    1.5721 Si      1  UNL1        0.0000
      2 C          -0.7455   -2.0887    1.2321 C.2     1  UNL1        0.0000
      3 C          -0.2525   -0.9409    0.7195 C.ar    1  UNL1        0.0000
      4 C          -1.0760    0.2122    0.3343 C.ar    1  UNL1        0.0000
      5 C          -0.4599    1.2839   -0.2121 C.ar    1  UNL1        0.0000
      6 C           1.0018    1.3496   -0.4194 C.ar    1  UNL1        0.0000
      7 C           1.5691    2.4880   -0.9849 C.ar    1  UNL1        0.0000
      8 N           2.8825    2.6892   -1.2127 N.ar    1  UNL1        0.0000
      9 C           3.6863    1.6688   -0.8350 C.ar    1  UNL1        0.0000
     10 C           5.0947    1.5962   -0.9383 C.ar    1  UNL1        0.0000
     11 C           5.4797    0.3817   -0.4231 C.ar    1  UNL1        0.0000
     12 N           4.3467   -0.2753   -0.0151 N.ar    1  UNL1        0.0000
     13 C           3.2224    0.4812   -0.2594 C.ar    1  UNL1        0.0000
     14 C           1.8483    0.2838   -0.0434 C.ar    1  UNL1        0.0000
     15 C           1.2303   -0.9296    0.5369 C.ar    1  UNL1        0.0000
     16 C           1.8281   -2.0788    0.9178 C.2     1  UNL1        0.0000
     17 C          -2.4853    0.3027    0.4983 C.ar    1  UNL1        0.0000
     18 S          -3.2950    0.5057    2.0214 S.2     1  UNL1        0.0000
     19 C          -4.8819    0.5116    1.3005 C.ar    1  UNL1        0.0000
     20 C          -4.7265    0.3655   -0.0323 C.ar    1  UNL1        0.0000
     21 C          -5.4890    0.2844   -1.2077 C.ar    1  UNL1        0.0000
     22 C          -4.5503    0.1301   -2.2365 C.ar    1  UNL1        0.0000
     23 O          -3.2354    0.1067   -1.8079 O.2     1  UNL1        0.0000
     24 C          -3.4277    0.2529   -0.4666 C.ar    1  UNL1        0.0000
     25 H           0.5082   -4.5286    0.7073 H       1  UNL1        0.0000
     26 H           0.7871   -3.5917    3.0173 H       1  UNL1        0.0000
     27 H          -1.7789   -2.3236    1.4323 H       1  UNL1        0.0000
     28 H          -1.0314    2.1583   -0.5143 H       1  UNL1        0.0000
     29 H           0.9439    3.3248   -1.2887 H       1  UNL1        0.0000
     30 H           5.7456    2.3580   -1.3437 H       1  UNL1        0.0000
     31 H           6.4560   -0.0698   -0.3078 H       1  UNL1        0.0000
     32 H           4.3525   -1.1855    0.4152 H       1  UNL1        0.0000
     33 H           2.8586   -2.3696    0.8862 H       1  UNL1        0.0000
     34 H          -5.7730    0.6211    1.9017 H       1  UNL1        0.0000
     35 H          -6.5618    0.3279   -1.3274 H       1  UNL1        0.0000
     36 H          -4.6613    0.0255   -3.3081 H       1  UNL1        0.0000
@<TRIPOS>BOND
     1     1     2    1
     2     2     3    2
     3     3     4   ar
     4     4     5   ar
     5     5     6   ar
     6     6     7   ar
     7     7     8   ar
     8     8     9   ar
     9     9    10   ar
    10    10    11   ar
    11    11    12   ar
    12    12    13   ar
    13    13    14   ar
    14    14    15   ar
    15    15    16    2
    16     4    17    1
    17    17    18   ar
    18    18    19   ar
    19    19    20   ar
    20    20    21   ar
    21    21    22   ar
    22    22    23   ar
    23    23    24   ar
    24    16     1    1
    25    24    17   ar
    26    15     3   ar
    27    24    20   ar
    28    14     6   ar
    29    13     9   ar
    30     1    25    1
    31     1    26    1
    32     2    27    1
    33     5    28    1
    34     7    29    1
    35    10    30    1
    36    11    31    1
    37    12    32    1
    38    16    33    1
    39    19    34    1
    40    21    35    1
    41    22    36    1
