@<TRIPOS>MOLECULE
*****
 43 49 0 0 0
SMALL
GASTEIGER

@<TRIPOS>ATOM
      1 C           5.8190    2.0445   -1.8325 C.3     1  UNL1       -0.0148
      2 C           6.6026    1.2242   -0.8604 C.2     1  UNL1       -0.0725
      3 C           5.7584    0.4873   -0.1267 C.ar    1  UNL1       -0.0212
      4 C           6.0901   -0.3657    0.9783 C.ar    1  UNL1       -0.0537
      5 C           5.0947   -0.9440    1.6678 C.ar    1  UNL1       -0.0520
      6 C           3.6736   -0.7608    1.2826 C.ar    1  UNL1        0.0014
      7 C           2.6964   -1.3767    2.0522 C.ar    1  UNL1        0.0360
      8 N           1.3799   -1.3264    1.7856 N.ar    1  UNL1       -0.2532
      9 C           0.9990   -0.6672    0.6626 C.ar    1  UNL1        0.0858
     10 C          -0.4016   -0.6949    0.4109 C.ar    1  UNL1        0.0458
     11 S          -1.6504   -1.4179    1.3686 S.2     1  UNL1       -0.0856
     12 C          -2.8922   -0.9432    0.2984 C.ar    1  UNL1        0.0274
     13 C          -2.3747   -0.2474   -0.7732 C.ar    1  UNL1       -0.0386
     14 C          -0.9478   -0.0994   -0.7261 C.ar    1  UNL1       -0.0081
     15 C          -0.0694    0.5198   -1.6366 C.ar    1  UNL1       -0.0528
     16 C           1.3088    0.5522   -1.3848 C.ar    1  UNL1       -0.0513
     17 C           1.8808   -0.0074   -0.2235 C.ar    1  UNL1        0.0098
     18 C           3.2643   -0.0084    0.1414 C.ar    1  UNL1        0.0002
     19 C           4.3733    0.7090   -0.5555 C.ar    1  UNL1       -0.0134
     20 C           4.4029    1.6492   -1.5183 C.2     1  UNL1       -0.0719
     21 C          -4.2820   -1.2375    0.5427 C.ar    1  UNL1        0.0300
     22 S          -4.8180   -2.7604    1.1841 S.2     1  UNL1       -0.0953
     23 C          -6.4840   -2.3107    1.1474 C.ar    1  UNL1       -0.0163
     24 C          -6.5964   -1.0472    0.6571 C.ar    1  UNL1       -0.0142
     25 C          -7.6613   -0.1488    0.4033 C.2     1  UNL1       -0.0574
     26 C          -7.1586    1.0068   -0.0874 C.2     1  UNL1       -0.0791
     27 C          -5.6316    0.9460   -0.2013 C.3     1  UNL1       -0.0075
     28 C          -5.3707   -0.4330    0.3071 C.ar    1  UNL1       -0.0212
     29 H           5.9741    3.1137   -1.6600 H       1  UNL1        0.0350
     30 H           6.0786    1.7957   -2.8655 H       1  UNL1        0.0350
     31 H           7.6750    1.2685   -0.7481 H       1  UNL1        0.0581
     32 H           7.1282   -0.5050    1.2582 H       1  UNL1        0.0624
     33 H           5.3187   -1.5778    2.5201 H       1  UNL1        0.0624
     34 H           2.9496   -1.9521    2.9387 H       1  UNL1        0.0836
     35 H          -2.9858    0.1352   -1.5812 H       1  UNL1        0.0635
     36 H          -0.4575    0.9682   -2.5486 H       1  UNL1        0.0624
     37 H           1.9244    0.9984   -2.1547 H       1  UNL1        0.0624
     38 H           3.5753    2.1229   -2.0146 H       1  UNL1        0.0581
     39 H          -7.2518   -2.9917    1.4855 H       1  UNL1        0.0699
     40 H          -8.7059   -0.3615    0.5813 H       1  UNL1        0.0621
     41 H          -7.7426    1.8711   -0.3667 H       1  UNL1        0.0575
     42 H          -5.1644    1.7077    0.4290 H       1  UNL1        0.0356
     43 H          -5.3208    1.0646   -1.2428 H       1  UNL1        0.0356
@<TRIPOS>BOND
     1     1     2    1
     2     2     3    2
     3     3     4   ar
     4     4     5   ar
     5     5     6   ar
     6     6     7   ar
     7     7     8   ar
     8     8     9   ar
     9     9    10   ar
    10    10    11   ar
    11    11    12   ar
    12    12    13   ar
    13    13    14   ar
    14    14    15   ar
    15    15    16   ar
    16    16    17   ar
    17    17    18   ar
    18    18    19   ar
    19    19    20    2
    20    12    21    1
    21    21    22   ar
    22    22    23   ar
    23    23    24   ar
    24    24    25    1
    25    25    26    2
    26    26    27    1
    27    27    28    1
    28    20     1    1
    29    28    21   ar
    30    19     3   ar
    31    28    24   ar
    32    18     6   ar
    33    17     9   ar
    34    14    10   ar
    35     1    29    1
    36     1    30    1
    37     2    31    1
    38     4    32    1
    39     5    33    1
    40     7    34    1
    41    13    35    1
    42    15    36    1
    43    16    37    1
    44    20    38    1
    45    23    39    1
    46    25    40    1
    47    26    41    1
    48    27    42    1
    49    27    43    1
