@<TRIPOS>MOLECULE
*****
 36 41 0 0 0
SMALL
GASTEIGER

@<TRIPOS>ATOM
      1 C          -2.7344    1.5514    2.5802 C.3     1  UNL1       -0.0148
      2 C          -4.0491    1.1706    1.9572 C.2     1  UNL1       -0.0725
      3 C          -3.8219    0.4879    0.8269 C.ar    1  UNL1       -0.0211
      4 C          -4.7722   -0.0761   -0.1009 C.ar    1  UNL1       -0.0537
      5 C          -4.3263   -0.7334   -1.1902 C.ar    1  UNL1       -0.0519
      6 C          -2.8731   -0.8922   -1.4602 C.ar    1  UNL1        0.0044
      7 C          -2.4117   -1.5722   -2.5868 C.ar    1  UNL1        0.0362
      8 N          -1.1116   -1.7726   -2.9249 N.ar    1  UNL1       -0.2511
      9 C          -0.2201   -1.2409   -2.0505 C.ar    1  UNL1        0.1101
     10 C           1.1916   -1.2523   -2.0767 C.ar    1  UNL1        0.0103
     11 C           1.6214   -0.5697   -0.9506 C.ar    1  UNL1        0.1399
     12 O           0.5341   -0.1429   -0.2395 O.2     1  UNL1       -0.4525
     13 C          -0.5834   -0.5482   -0.9035 C.ar    1  UNL1        0.1621
     14 C          -1.9166   -0.3515   -0.5712 C.ar    1  UNL1        0.0354
     15 C          -2.3838    0.3632    0.6131 C.ar    1  UNL1       -0.0105
     16 C          -1.7366    0.9727    1.6178 C.2     1  UNL1       -0.0718
     17 C           2.9405   -0.2452   -0.4217 C.ar    1  UNL1        0.0455
     18 C           4.1267   -0.6424   -1.0907 C.ar    1  UNL1       -0.0489
     19 C           5.4332   -0.3577   -0.6276 C.ar    1  UNL1       -0.0589
     20 C           5.6840    0.3540    0.5527 C.ar    1  UNL1       -0.0335
     21 C           4.5475    0.7844    1.2764 C.ar    1  UNL1        0.1006
     22 N           4.5860    1.4762    2.4255 N.ar    1  UNL1       -0.1908
     23 S           3.0108    1.7357    2.8688 S.2     1  UNL1        0.1165
     24 N           2.2128    0.9859    1.6296 N.ar    1  UNL1       -0.1901
     25 C           3.1390    0.4856    0.7909 C.ar    1  UNL1        0.1105
     26 H          -2.6265    1.1069    3.5739 H       1  UNL1        0.0350
     27 H          -2.6313    2.6384    2.6480 H       1  UNL1        0.0350
     28 H          -5.0140    1.4179    2.3713 H       1  UNL1        0.0581
     29 H          -5.8327    0.0387    0.0943 H       1  UNL1        0.0624
     30 H          -5.0273   -1.1636   -1.8980 H       1  UNL1        0.0624
     31 H          -3.1164   -2.0030   -3.2956 H       1  UNL1        0.0836
     32 H           1.8092   -1.7088   -2.8347 H       1  UNL1        0.0677
     33 H          -0.6661    1.0477    1.7364 H       1  UNL1        0.0581
     34 H           4.0474   -1.2038   -2.0227 H       1  UNL1        0.0625
     35 H           6.2824   -0.7077   -1.2157 H       1  UNL1        0.0618
     36 H           6.6885    0.5669    0.8985 H       1  UNL1        0.0640
@<TRIPOS>BOND
     1     1     2    1
     2     2     3    2
     3     3     4   ar
     4     4     5   ar
     5     5     6   ar
     6     6     7   ar
     7     7     8   ar
     8     8     9   ar
     9     9    10   ar
    10    10    11   ar
    11    11    12   ar
    12    12    13   ar
    13    13    14   ar
    14    14    15   ar
    15    15    16    2
    16    11    17    1
    17    17    18   ar
    18    18    19   ar
    19    19    20   ar
    20    20    21   ar
    21    21    22   ar
    22    22    23   ar
    23    23    24   ar
    24    24    25   ar
    25    16     1    1
    26    25    17   ar
    27    15     3   ar
    28    25    21   ar
    29    14     6   ar
    30    13     9   ar
    31     1    26    1
    32     1    27    1
    33     2    28    1
    34     4    29    1
    35     5    30    1
    36     7    31    1
    37    10    32    1
    38    16    33    1
    39    18    34    1
    40    19    35    1
    41    20    36    1
