@<TRIPOS>MOLECULE
*****
 42 48 0 0 0
SMALL
GASTEIGER

@<TRIPOS>ATOM
      1 C          -5.2950    2.4100    0.1082 C.3     1  UNL1       -0.0148
      2 C          -6.2408    1.2600   -0.0186 C.2     1  UNL1       -0.0725
      3 C          -5.5509    0.1142    0.0541 C.ar    1  UNL1       -0.0212
      4 C          -6.0839   -1.2179    0.0785 C.ar    1  UNL1       -0.0537
      5 C          -5.2427   -2.2443    0.2781 C.ar    1  UNL1       -0.0520
      6 C          -3.7813   -2.0329    0.4170 C.ar    1  UNL1        0.0014
      7 C          -2.9685   -3.1303    0.6416 C.ar    1  UNL1        0.0360
      8 N          -1.6270   -3.0718    0.7379 N.ar    1  UNL1       -0.2543
      9 C          -1.0309   -1.8887    0.5530 C.ar    1  UNL1        0.0722
     10 C           0.3565   -1.8927    0.6097 C.ar    1  UNL1       -0.0275
     11 C           1.1275   -0.7329    0.3853 C.ar    1  UNL1       -0.0082
     12 C           2.5469   -0.5273    0.3928 C.ar    1  UNL1       -0.0386
     13 C           2.9189    0.7708    0.1013 C.ar    1  UNL1        0.0277
     14 S           1.5378    1.7395   -0.1917 S.2     1  UNL1       -0.0877
     15 C           0.4495    0.4393    0.0850 C.ar    1  UNL1        0.0206
     16 C          -0.9583    0.4729    0.0277 C.ar    1  UNL1       -0.0376
     17 C          -1.7309   -0.6879    0.2966 C.ar    1  UNL1        0.0097
     18 C          -3.1597   -0.7590    0.2986 C.ar    1  UNL1        0.0002
     19 C          -4.1151    0.3838    0.1869 C.ar    1  UNL1       -0.0134
     20 C          -3.9694    1.7195    0.2688 C.2     1  UNL1       -0.0719
     21 C           4.2630    1.2842    0.0203 C.ar    1  UNL1        0.0351
     22 S           4.6846    2.9457    0.3644 S.2     1  UNL1       -0.0934
     23 C           6.3776    2.7089    0.0741 C.ar    1  UNL1        0.0002
     24 C           6.5595    1.4177   -0.2630 C.ar    1  UNL1        0.0542
     25 N           7.7433    0.8158   -0.5750 N.ar    1  UNL1       -0.3602
     26 C           7.3232   -0.4857   -0.8390 C.ar    1  UNL1        0.0028
     27 C           5.9273   -0.6226   -0.6811 C.ar    1  UNL1       -0.0355
     28 C           5.4180    0.6471   -0.2911 C.ar    1  UNL1        0.0149
     29 H          -5.5292    3.0164    0.9881 H       1  UNL1        0.0350
     30 H          -5.3076    3.0382   -0.7872 H       1  UNL1        0.0350
     31 H          -7.3124    1.3567   -0.1004 H       1  UNL1        0.0581
     32 H          -7.1515   -1.3726   -0.0287 H       1  UNL1        0.0624
     33 H          -5.6224   -3.2601    0.3229 H       1  UNL1        0.0624
     34 H          -3.3807   -4.1293    0.7556 H       1  UNL1        0.0836
     35 H           0.8638   -2.8314    0.8237 H       1  UNL1        0.0645
     36 H           3.2587   -1.3134    0.6132 H       1  UNL1        0.0635
     37 H          -1.4233    1.4020   -0.2689 H       1  UNL1        0.0636
     38 H          -3.0726    2.2828    0.4565 H       1  UNL1        0.0581
     39 H           7.1005    3.5069    0.1664 H       1  UNL1        0.0714
     40 H           8.6668    1.2305   -0.6032 H       1  UNL1        0.1653
     41 H           8.0590   -1.2252   -1.1284 H       1  UNL1        0.0807
     42 H           5.3717   -1.5368   -0.8421 H       1  UNL1        0.0639
@<TRIPOS>BOND
     1     1     2    1
     2     2     3    2
     3     3     4   ar
     4     4     5   ar
     5     5     6   ar
     6     6     7   ar
     7     7     8   ar
     8     8     9   ar
     9     9    10   ar
    10    10    11   ar
    11    11    12   ar
    12    12    13   ar
    13    13    14   ar
    14    14    15   ar
    15    15    16   ar
    16    16    17   ar
    17    17    18   ar
    18    18    19   ar
    19    19    20    2
    20    13    21    1
    21    21    22   ar
    22    22    23   ar
    23    23    24   ar
    24    24    25   ar
    25    25    26   ar
    26    26    27   ar
    27    27    28   ar
    28    20     1    1
    29    28    21   ar
    30    19     3   ar
    31    28    24   ar
    32    18     6   ar
    33    17     9   ar
    34    15    11   ar
    35     1    29    1
    36     1    30    1
    37     2    31    1
    38     4    32    1
    39     5    33    1
    40     7    34    1
    41    10    35    1
    42    12    36    1
    43    16    37    1
    44    20    38    1
    45    23    39    1
    46    25    40    1
    47    26    41    1
    48    27    42    1
