@<TRIPOS>MOLECULE
*****
 35 39 0 0 0
SMALL
GASTEIGER

@<TRIPOS>ATOM
      1 C          -4.3757   -2.5593    0.3920 C.3     1  UNL1       -0.0148
      2 C          -5.2235   -1.3368    0.1767 C.2     1  UNL1       -0.0725
      3 C          -4.4295   -0.2776   -0.0285 C.ar    1  UNL1       -0.0211
      4 C          -4.7918    1.0947   -0.2774 C.ar    1  UNL1       -0.0523
      5 C          -3.8139    2.0033   -0.4571 C.ar    1  UNL1       -0.0352
      6 C          -2.3800    1.6322   -0.4061 C.ar    1  UNL1        0.0716
      7 N          -1.5101    2.6483   -0.6043 N.ar    1  UNL1       -0.2543
      8 C          -0.1914    2.3303   -0.5618 C.ar    1  UNL1        0.0389
      9 C           0.3220    1.0526   -0.3323 C.ar    1  UNL1        0.0360
     10 C          -0.6078    0.0247   -0.1311 C.ar    1  UNL1       -0.0399
     11 C          -1.9754    0.3025   -0.1656 C.ar    1  UNL1        0.0085
     12 C          -3.0334   -0.6952    0.0316 C.ar    1  UNL1       -0.0126
     13 C          -2.9785   -2.0143    0.2744 C.2     1  UNL1       -0.0719
     14 C           1.7599    0.8095   -0.3052 C.ar    1  UNL1        0.1377
     15 C           2.8802    1.6048   -0.4660 C.ar    1  UNL1       -0.0080
     16 C           4.0139    0.7611   -0.3244 C.ar    1  UNL1        0.0208
     17 C           5.4085    0.9320   -0.3734 C.ar    1  UNL1       -0.0510
     18 C           6.2301   -0.1879   -0.1769 C.ar    1  UNL1       -0.0610
     19 C           5.6817   -1.4509    0.0631 C.ar    1  UNL1       -0.0582
     20 C           4.2967   -1.6399    0.1154 C.ar    1  UNL1       -0.0187
     21 C           3.5087   -0.5091   -0.0836 C.ar    1  UNL1        0.1357
     22 O           2.1488   -0.4815   -0.0717 O.2     1  UNL1       -0.4548
     23 H          -4.5483   -2.9884    1.3834 H       1  UNL1        0.0350
     24 H          -4.5697   -3.3133   -0.3764 H       1  UNL1        0.0350
     25 H          -6.3025   -1.3324    0.1890 H       1  UNL1        0.0581
     26 H          -5.8379    1.3754   -0.3165 H       1  UNL1        0.0624
     27 H          -4.0368    3.0470   -0.6470 H       1  UNL1        0.0639
     28 H           0.4648    3.1809   -0.7269 H       1  UNL1        0.0837
     29 H          -0.2652   -0.9898    0.0520 H       1  UNL1        0.0632
     30 H          -2.0875   -2.6143    0.3743 H       1  UNL1        0.0581
     31 H           2.8902    2.6671   -0.6622 H       1  UNL1        0.0661
     32 H           5.8457    1.9084   -0.5591 H       1  UNL1        0.0625
     33 H           7.3113   -0.0701   -0.2122 H       1  UNL1        0.0618
     34 H           6.3420   -2.3029    0.2122 H       1  UNL1        0.0619
     35 H           3.8542   -2.6109    0.3001 H       1  UNL1        0.0654
@<TRIPOS>BOND
     1     1     2    1
     2     2     3    2
     3     3     4   ar
     4     4     5   ar
     5     5     6   ar
     6     6     7   ar
     7     7     8   ar
     8     8     9   ar
     9     9    10   ar
    10    10    11   ar
    11    11    12   ar
    12    12    13    2
    13     9    14    1
    14    14    15   ar
    15    15    16   ar
    16    16    17   ar
    17    17    18   ar
    18    18    19   ar
    19    19    20   ar
    20    20    21   ar
    21    21    22   ar
    22    13     1    1
    23    22    14   ar
    24    12     3   ar
    25    21    16   ar
    26    11     6   ar
    27     1    23    1
    28     1    24    1
    29     2    25    1
    30     4    26    1
    31     5    27    1
    32     8    28    1
    33    10    29    1
    34    13    30    1
    35    15    31    1
    36    17    32    1
    37    18    33    1
    38    19    34    1
    39    20    35    1
