@<TRIPOS>MOLECULE
*****
 49 56 0 0 0
SMALL
GASTEIGER

@<TRIPOS>ATOM
      1 C           6.1781    2.5413    1.2840 C.3     1  UNL1        0.0000
      2 C           6.9105    1.2832    0.9420 C.2     1  UNL1        0.0000
      3 C           6.0339    0.3683    0.5083 C.ar    1  UNL1        0.0000
      4 C           6.3226   -0.9342   -0.0217 C.ar    1  UNL1        0.0000
      5 C           5.3092   -1.6565   -0.5248 C.ar    1  UNL1        0.0000
      6 C           3.9103   -1.1739   -0.4987 C.ar    1  UNL1        0.0000
      7 N           3.0382   -2.0393   -1.0469 N.ar    1  UNL1        0.0000
      8 C           1.7365   -1.6798   -1.0228 C.ar    1  UNL1        0.0000
      9 C           1.2003   -0.5115   -0.4600 C.ar    1  UNL1        0.0000
     10 C           2.1356    0.3255    0.2133 C.ar    1  UNL1        0.0000
     11 C           1.6040    1.3614    1.0094 C.ar    1  UNL1        0.0000
     12 C           0.2342    1.5911    1.1248 C.ar    1  UNL1        0.0000
     13 C          -0.6723    0.8283    0.3944 C.ar    1  UNL1        0.0000
     14 C          -2.1151    1.0577    0.6368 C.ar    1  UNL1        0.0000
     15 C          -3.0894    0.3892   -0.0148 C.ar    1  UNL1        0.0000
     16 C          -4.4403    0.6511    0.3734 C.ar    1  UNL1        0.0000
     17 S          -5.1889    2.2233    0.1364 S.2     1  UNL1        0.0000
     18 C          -6.7168    1.7301    0.7907 C.ar    1  UNL1        0.0000
     19 C          -6.6089    0.4377    1.1432 C.ar    1  UNL1        0.0000
     20 O          -7.5843   -0.3360    1.6917 O.2     1  UNL1        0.0000
     21 C          -6.8902   -1.5264    1.8193 C.ar    1  UNL1        0.0000
     22 C          -5.5646   -1.4695    1.3696 C.ar    1  UNL1        0.0000
     23 C          -5.3892   -0.1487    0.9196 C.ar    1  UNL1        0.0000
     24 C          -2.6846   -0.5478   -1.0626 C.ar    1  UNL1        0.0000
     25 C          -3.5451   -1.1474   -1.9133 C.2     1  UNL1        0.0000
     26 SI         -2.6599   -2.0894   -3.2452 Si      1  UNL1        0.0000
     27 C          -1.0514   -1.5164   -2.4790 C.2     1  UNL1        0.0000
     28 C          -1.2453   -0.8149   -1.3400 C.ar    1  UNL1        0.0000
     29 C          -0.1970   -0.1836   -0.4752 C.ar    1  UNL1        0.0000
     30 C           3.5325    0.0491    0.1053 C.ar    1  UNL1        0.0000
     31 C           4.6682    0.8990    0.5642 C.ar    1  UNL1        0.0000
     32 C           4.7536    2.1811    0.9652 C.2     1  UNL1        0.0000
     33 H           6.2943    2.7964    2.3413 H       1  UNL1        0.0000
     34 H           6.5188    3.3752    0.6631 H       1  UNL1        0.0000
     35 H           7.9826    1.1683    0.9889 H       1  UNL1        0.0000
     36 H           7.3428   -1.2991   -0.0421 H       1  UNL1        0.0000
     37 H           5.4757   -2.6368   -0.9573 H       1  UNL1        0.0000
     38 H           1.0983   -2.4531   -1.4365 H       1  UNL1        0.0000
     39 H           2.2440    1.9669    1.6406 H       1  UNL1        0.0000
     40 H          -0.1095    2.3690    1.8034 H       1  UNL1        0.0000
     41 H          -2.3636    1.7691    1.4208 H       1  UNL1        0.0000
     42 H          -7.5729    2.3831    0.8745 H       1  UNL1        0.0000
     43 H          -7.4749   -2.3291    2.2497 H       1  UNL1        0.0000
     44 H          -4.8509   -2.2808    1.3786 H       1  UNL1        0.0000
     45 H          -4.6203   -1.0593   -1.9262 H       1  UNL1        0.0000
     46 H          -2.8752   -1.5175   -4.5954 H       1  UNL1        0.0000
     47 H          -2.8431   -3.5555   -3.1256 H       1  UNL1        0.0000
     48 H          -0.1329   -1.7464   -2.9906 H       1  UNL1        0.0000
     49 H           3.9624    2.9080    1.0330 H       1  UNL1        0.0000
@<TRIPOS>BOND
     1     1     2    1
     2     2     3    2
     3     3     4   ar
     4     4     5   ar
     5     5     6   ar
     6     6     7   ar
     7     7     8   ar
     8     8     9   ar
     9     9    10   ar
    10    10    11   ar
    11    11    12   ar
    12    12    13   ar
    13    13    14   ar
    14    14    15   ar
    15    15    16    1
    16    16    17   ar
    17    17    18   ar
    18    18    19   ar
    19    19    20   ar
    20    20    21   ar
    21    21    22   ar
    22    22    23   ar
    23    15    24   ar
    24    24    25    2
    25    25    26    1
    26    26    27    1
    27    27    28    2
    28    28    29   ar
    29    10    30   ar
    30    30    31   ar
    31    31    32    2
    32    32     1    1
    33    31     3   ar
    34    30     6   ar
    35    29     9   ar
    36    29    13   ar
    37    23    16   ar
    38    28    24   ar
    39    23    19   ar
    40     1    33    1
    41     1    34    1
    42     2    35    1
    43     4    36    1
    44     5    37    1
    45     8    38    1
    46    11    39    1
    47    12    40    1
    48    14    41    1
    49    18    42    1
    50    21    43    1
    51    22    44    1
    52    25    45    1
    53    26    46    1
    54    26    47    1
    55    27    48    1
    56    32    49    1
