@<TRIPOS>MOLECULE
*****
 42 48 0 0 0
SMALL
GASTEIGER

@<TRIPOS>ATOM
      1 C          -4.9569   -3.2516    0.1761 C.3     1  UNL1        0.0000
      2 C          -5.9285   -2.1183    0.0603 C.2     1  UNL1        0.0000
      3 C          -5.2530   -0.9649   -0.0243 C.ar    1  UNL1        0.0000
      4 C          -5.7886    0.3651   -0.1479 C.ar    1  UNL1        0.0000
      5 C          -4.9372    1.4030   -0.2190 C.ar    1  UNL1        0.0000
      6 C          -3.4692    1.2162   -0.1740 C.ar    1  UNL1        0.0000
      7 N          -2.7639    2.3562   -0.2574 N.ar    1  UNL1        0.0000
      8 C          -1.4175    2.2932   -0.2251 C.ar    1  UNL1        0.0000
      9 C          -0.7176    1.0785   -0.1071 C.ar    1  UNL1        0.0000
     10 C          -1.4822   -0.1062   -0.0227 C.ar    1  UNL1        0.0000
     11 S          -0.4440   -1.4783    0.1117 S.2     1  UNL1        0.0000
     12 C           0.9744   -0.5574    0.0618 C.ar    1  UNL1        0.0000
     13 C           2.2596   -1.1799    0.1328 C.ar    1  UNL1        0.0000
     14 C           3.3714   -0.4097    0.0949 C.ar    1  UNL1        0.0000
     15 C           4.6313   -1.0851    0.1387 C.ar    1  UNL1        0.0000
     16 C           5.5915   -1.2322   -0.8496 C.ar    1  UNL1        0.0000
     17 N           6.7331   -1.9277   -0.4993 N.ar    1  UNL1        0.0000
     18 C           6.6376   -2.3018    0.7563 C.ar    1  UNL1        0.0000
     19 S           5.2039   -1.8490    1.5774 S.2     1  UNL1        0.0000
     20 C           3.2060    1.0507   -0.0246 C.ar    1  UNL1        0.0000
     21 C           4.2304    1.9300   -0.0593 C.2     1  UNL1        0.0000
     22 SI          3.6329    3.6845   -0.2038 Si      1  UNL1        0.0000
     23 C           1.8807    3.0257   -0.1981 C.2     1  UNL1        0.0000
     24 C           1.8480    1.6820   -0.1010 C.ar    1  UNL1        0.0000
     25 C           0.7046    0.7971   -0.0537 C.ar    1  UNL1        0.0000
     26 C          -2.8933   -0.0617   -0.0541 C.ar    1  UNL1        0.0000
     27 C          -3.8092   -1.2180    0.0260 C.ar    1  UNL1        0.0000
     28 C          -3.6300   -2.5455    0.1426 C.2     1  UNL1        0.0000
     29 H          -5.0551   -3.9440   -0.6650 H       1  UNL1        0.0000
     30 H          -5.0907   -3.7924    1.1175 H       1  UNL1        0.0000
     31 H          -7.0015   -2.2323    0.0486 H       1  UNL1        0.0000
     32 H          -6.8619    0.5125   -0.1818 H       1  UNL1        0.0000
     33 H          -5.2942    2.4224   -0.3127 H       1  UNL1        0.0000
     34 H          -0.9319    3.2562   -0.2991 H       1  UNL1        0.0000
     35 H           2.3199   -2.2629    0.2051 H       1  UNL1        0.0000
     36 H           5.5034   -0.8436   -1.8576 H       1  UNL1        0.0000
     37 H           7.4186   -2.8637    1.2518 H       1  UNL1        0.0000
     38 H           5.2860    1.7129   -0.0059 H       1  UNL1        0.0000
     39 H           3.9295    4.4916    1.0028 H       1  UNL1        0.0000
     40 H           3.9906    4.3031   -1.5019 H       1  UNL1        0.0000
     41 H           1.0728    3.7288   -0.2627 H       1  UNL1        0.0000
     42 H          -2.6997   -3.0834    0.2071 H       1  UNL1        0.0000
@<TRIPOS>BOND
     1     1     2    1
     2     2     3    2
     3     3     4   ar
     4     4     5   ar
     5     5     6   ar
     6     6     7   ar
     7     7     8   ar
     8     8     9   ar
     9     9    10   ar
    10    10    11   ar
    11    11    12   ar
    12    12    13   ar
    13    13    14   ar
    14    14    15    1
    15    15    16   ar
    16    16    17   ar
    17    17    18   ar
    18    18    19   ar
    19    14    20   ar
    20    20    21    2
    21    21    22    1
    22    22    23    1
    23    23    24    2
    24    24    25   ar
    25    10    26   ar
    26    26    27   ar
    27    27    28    2
    28    28     1    1
    29    27     3   ar
    30    26     6   ar
    31    25     9   ar
    32    25    12   ar
    33    19    15   ar
    34    24    20   ar
    35     1    29    1
    36     1    30    1
    37     2    31    1
    38     4    32    1
    39     5    33    1
    40     8    34    1
    41    13    35    1
    42    16    36    1
    43    18    37    1
    44    21    38    1
    45    22    39    1
    46    22    40    1
    47    23    41    1
    48    28    42    1
