@<TRIPOS>MOLECULE
*****
 46 53 0 0 0
SMALL
GASTEIGER

@<TRIPOS>ATOM
      1 C          -6.0706    1.5509   -0.7260 C.3     1  UNL1       -0.0148
      2 C          -6.6113    0.3493   -0.0166 C.2     1  UNL1       -0.0725
      3 C          -5.5901   -0.4230    0.3766 C.ar    1  UNL1       -0.0211
      4 C          -5.6586   -1.7310    0.9642 C.ar    1  UNL1       -0.0523
      5 C          -4.5142   -2.4145    1.1236 C.ar    1  UNL1       -0.0351
      6 C          -3.1974   -1.8324    0.7786 C.ar    1  UNL1        0.0722
      7 N          -2.1715   -2.6791    0.9745 N.ar    1  UNL1       -0.2543
      8 C          -0.9313   -2.2066    0.7198 C.ar    1  UNL1        0.0366
      9 C          -0.5872   -0.9082    0.3292 C.ar    1  UNL1        0.0114
     10 C           0.8059   -0.5117    0.0752 C.ar    1  UNL1        0.0026
     11 C           1.9875   -1.3062   -0.1256 C.ar    1  UNL1        0.0085
     12 C           2.0519   -2.6698   -0.3170 C.ar    1  UNL1        0.0100
     13 N           3.3708   -3.0216   -0.4968 N.ar    1  UNL1       -0.3659
     14 C           4.1560   -1.8986   -0.5030 C.ar    1  UNL1        0.0101
     15 C           3.3384   -0.8114   -0.2967 C.ar    1  UNL1        0.0107
     16 C           3.7335    0.5315   -0.3118 C.ar    1  UNL1        0.0290
     17 C           2.5795    1.3452   -0.1941 C.ar    1  UNL1       -0.0405
     18 C           1.2159    0.8645   -0.0274 C.ar    1  UNL1        0.0123
     19 C           0.1547    1.8133    0.0682 C.ar    1  UNL1        0.1082
     20 N           0.3093    3.1515    0.0396 N.ar    1  UNL1       -0.1901
     21 S          -1.1807    3.8232    0.2384 S.2     1  UNL1        0.1165
     22 N          -2.0960    2.4605    0.3481 N.ar    1  UNL1       -0.1901
     23 C          -1.2915    1.3914    0.2095 C.ar    1  UNL1        0.1089
     24 C          -1.6947    0.0011    0.2674 C.ar    1  UNL1        0.0221
     25 C          -3.0382   -0.4953    0.3537 C.ar    1  UNL1        0.0176
     26 C          -4.3105    0.2038    0.0327 C.ar    1  UNL1       -0.0120
     27 C          -4.5888    1.3128   -0.6750 C.2     1  UNL1       -0.0719
     28 C           5.0890    1.0584   -0.4657 C.ar    1  UNL1        0.1636
     29 N           6.1246    0.3106   -0.0734 N.ar    1  UNL1       -0.2160
     30 C           7.3167    0.8842   -0.2173 C.ar    1  UNL1        0.1200
     31 N           7.5498    2.0997   -0.7023 N.ar    1  UNL1       -0.2241
     32 C           6.4475    2.7547   -1.0524 C.ar    1  UNL1        0.1200
     33 N           5.2012    2.2990   -0.9564 N.ar    1  UNL1       -0.2160
     34 H          -6.3420    2.4764   -0.2101 H       1  UNL1        0.0350
     35 H          -6.4249    1.5869   -1.7605 H       1  UNL1        0.0350
     36 H          -7.6611    0.1223    0.0864 H       1  UNL1        0.0581
     37 H          -6.6186   -2.1617    1.2231 H       1  UNL1        0.0624
     38 H          -4.5093   -3.4183    1.5335 H       1  UNL1        0.0639
     39 H          -0.1745   -2.9512    0.9373 H       1  UNL1        0.0836
     40 H           1.3083   -3.4494   -0.3811 H       1  UNL1        0.0813
     41 H           3.7049   -3.9642   -0.6547 H       1  UNL1        0.1648
     42 H           5.2197   -1.9866   -0.6793 H       1  UNL1        0.0813
     43 H           2.7318    2.4283   -0.2273 H       1  UNL1        0.0631
     44 H          -3.8887    1.9622   -1.1732 H       1  UNL1        0.0581
     45 H           8.1799    0.3045    0.0912 H       1  UNL1        0.1048
     46 H           6.5748    3.7549   -1.4523 H       1  UNL1        0.1048
@<TRIPOS>BOND
     1     1     2    1
     2     2     3    2
     3     3     4   ar
     4     4     5   ar
     5     5     6   ar
     6     6     7   ar
     7     7     8   ar
     8     8     9   ar
     9     9    10   ar
    10    10    11   ar
    11    11    12   ar
    12    12    13   ar
    13    13    14   ar
    14    14    15   ar
    15    15    16   ar
    16    16    17   ar
    17    17    18   ar
    18    18    19   ar
    19    19    20   ar
    20    20    21   ar
    21    21    22   ar
    22    22    23   ar
    23    23    24   ar
    24    24    25   ar
    25    25    26   ar
    26    26    27    2
    27    16    28    1
    28    28    29   ar
    29    29    30   ar
    30    30    31   ar
    31    31    32   ar
    32    32    33   ar
    33    27     1    1
    34    33    28   ar
    35    26     3   ar
    36    25     6   ar
    37    24     9   ar
    38    18    10   ar
    39    23    19   ar
    40    15    11   ar
    41     1    34    1
    42     1    35    1
    43     2    36    1
    44     4    37    1
    45     5    38    1
    46     8    39    1
    47    12    40    1
    48    13    41    1
    49    14    42    1
    50    17    43    1
    51    27    44    1
    52    30    45    1
    53    32    46    1
