@<TRIPOS>MOLECULE
*****
 46 53 0 0 0
SMALL
GASTEIGER

@<TRIPOS>ATOM
      1 C          -5.6565   -2.3760    0.7170 C.3     1  UNL1       -0.0148
      2 C          -6.3333   -1.5285   -0.3161 C.2     1  UNL1       -0.0725
      3 C          -5.4338   -0.6985   -0.8601 C.ar    1  UNL1       -0.0211
      4 C          -5.6053    0.1638   -1.9962 C.ar    1  UNL1       -0.0523
      5 C          -4.5147    0.7483   -2.5203 C.ar    1  UNL1       -0.0351
      6 C          -3.1701    0.5915   -1.9162 C.ar    1  UNL1        0.0722
      7 N          -2.1820    1.1669   -2.6348 N.ar    1  UNL1       -0.2543
      8 C          -0.9356    1.1001   -2.1213 C.ar    1  UNL1        0.0363
      9 C          -0.6007    0.5867   -0.8686 C.ar    1  UNL1        0.0055
     10 C           0.7555    0.6175   -0.4188 C.ar    1  UNL1       -0.0261
     11 C           1.9859    1.0913   -1.1559 C.3     1  UNL1       -0.0001
     12 C           3.0971    0.8670   -0.1248 C.2     1  UNL1       -0.0281
     13 C           2.6037    0.3762    1.0310 C.2     1  UNL1       -0.0491
     14 C           1.1828    0.2170    0.8536 C.ar    1  UNL1       -0.0124
     15 C           0.1623   -0.1636    1.7023 C.ar    1  UNL1       -0.0028
     16 C           0.3463   -0.4762    3.0262 C.ar    1  UNL1       -0.0160
     17 S          -1.1556   -0.7402    3.8086 S.2     1  UNL1       -0.1038
     18 C          -2.0393   -0.4170    2.3695 C.ar    1  UNL1       -0.0160
     19 C          -1.2255   -0.2284    1.2754 C.ar    1  UNL1       -0.0019
     20 C          -1.6837    0.0596   -0.0702 C.ar    1  UNL1        0.0018
     21 C          -2.9742   -0.0638   -0.6761 C.ar    1  UNL1        0.0161
     22 C          -4.1342   -0.8582   -0.2064 C.ar    1  UNL1       -0.0120
     23 C          -4.2363   -1.8882    0.6520 C.2     1  UNL1       -0.0719
     24 C           4.4886    1.1401   -0.2730 C.ar    1  UNL1        0.0239
     25 S           5.0118    2.4652   -1.2722 S.2     1  UNL1       -0.0952
     26 C           6.6806    2.1947   -0.9648 C.ar    1  UNL1       -0.0094
     27 C           6.8424    1.1160   -0.1473 C.ar    1  UNL1        0.0269
     28 S           8.3385    0.3455    0.4948 S.2     1  UNL1       -0.0961
     29 C           7.2401   -0.7946    1.2555 C.ar    1  UNL1       -0.0231
     30 C           5.8746   -0.5825    1.0319 C.ar    1  UNL1       -0.0459
     31 C           5.6173    0.5545    0.2143 C.ar    1  UNL1        0.0037
     32 H          -5.7173   -3.4361    0.4537 H       1  UNL1        0.0350
     33 H          -6.0858   -2.2163    1.7102 H       1  UNL1        0.0350
     34 H          -7.3612   -1.6459   -0.6233 H       1  UNL1        0.0581
     35 H          -6.5844    0.2844   -2.4449 H       1  UNL1        0.0624
     36 H          -4.5787    1.3764   -3.4018 H       1  UNL1        0.0639
     37 H          -0.1815    1.5295   -2.7770 H       1  UNL1        0.0836
     38 H           2.1615    0.4857   -2.0507 H       1  UNL1        0.0362
     39 H           1.8954    2.1518   -1.4112 H       1  UNL1        0.0362
     40 H           3.1333    0.1516    1.9419 H       1  UNL1        0.0627
     41 H           1.2642   -0.5271    3.5951 H       1  UNL1        0.0700
     42 H          -3.1153   -0.3738    2.4396 H       1  UNL1        0.0700
     43 H          -3.4365   -2.3540    1.2056 H       1  UNL1        0.0581
     44 H           7.4584    2.8138   -1.3900 H       1  UNL1        0.0705
     45 H           7.6833   -1.5882    1.8417 H       1  UNL1        0.0694
     46 H           5.1181   -1.2380    1.4444 H       1  UNL1        0.0629
@<TRIPOS>BOND
     1     1     2    1
     2     2     3    2
     3     3     4   ar
     4     4     5   ar
     5     5     6   ar
     6     6     7   ar
     7     7     8   ar
     8     8     9   ar
     9     9    10   ar
    10    10    11    1
    11    11    12    1
    12    12    13    2
    13    13    14    1
    14    14    15   ar
    15    15    16   ar
    16    16    17   ar
    17    17    18   ar
    18    18    19   ar
    19    19    20   ar
    20    20    21   ar
    21    21    22   ar
    22    22    23    2
    23    12    24    1
    24    24    25   ar
    25    25    26   ar
    26    26    27   ar
    27    27    28   ar
    28    28    29   ar
    29    29    30   ar
    30    30    31   ar
    31    23     1    1
    32    31    24   ar
    33    22     3   ar
    34    31    27   ar
    35    21     6   ar
    36    20     9   ar
    37    14    10   ar
    38    19    15   ar
    39     1    32    1
    40     1    33    1
    41     2    34    1
    42     4    35    1
    43     5    36    1
    44     8    37    1
    45    11    38    1
    46    11    39    1
    47    13    40    1
    48    16    41    1
    49    18    42    1
    50    23    43    1
    51    26    44    1
    52    29    45    1
    53    30    46    1
