@<TRIPOS>MOLECULE
*****
 42 48 0 0 0
SMALL
GASTEIGER

@<TRIPOS>ATOM
      1 C          -4.7652    2.4837    0.6099 C.3     1  UNL1       -0.0148
      2 C          -5.6405    1.2714    0.5240 C.2     1  UNL1       -0.0725
      3 C          -4.8797    0.1990    0.2686 C.ar    1  UNL1       -0.0211
      4 C          -5.3146   -1.1309   -0.0586 C.ar    1  UNL1       -0.0523
      5 C          -4.3970   -2.0117   -0.4924 C.ar    1  UNL1       -0.0351
      6 C          -2.9552   -1.6754   -0.5638 C.ar    1  UNL1        0.0722
      7 N          -2.1923   -2.6594   -1.0891 N.ar    1  UNL1       -0.2543
      8 C          -0.8589   -2.4461   -1.1272 C.ar    1  UNL1        0.0360
      9 C          -0.1971   -1.3498   -0.5825 C.ar    1  UNL1        0.0021
     10 C           1.2478   -1.3047   -0.6473 C.ar    1  UNL1       -0.0441
     11 C           2.0711   -0.3139   -0.0584 C.ar    1  UNL1       -0.0044
     12 C           3.5218   -0.3048   -0.1091 C.ar    1  UNL1        0.0110
     13 C           4.3439   -0.3666    1.0436 C.ar    1  UNL1       -0.0518
     14 C           5.7590   -0.3650    1.0070 C.ar    1  UNL1       -0.0590
     15 C           6.4927   -0.3066   -0.1877 C.ar    1  UNL1       -0.0335
     16 C           5.7358   -0.2539   -1.3815 C.ar    1  UNL1        0.1005
     17 N           6.2437   -0.1998   -2.6222 N.ar    1  UNL1       -0.1908
     18 S           4.9489   -0.1508   -3.6585 S.2     1  UNL1        0.1165
     19 N           3.6870   -0.2051   -2.5842 N.ar    1  UNL1       -0.1902
     20 C           4.2236   -0.2556   -1.3512 C.ar    1  UNL1        0.1076
     21 C           1.2737    0.5947    0.6345 C.ar    1  UNL1        0.0282
     22 C           1.6956    1.6541    1.3975 C.ar    1  UNL1        0.1000
     23 O           0.6254    2.2334    2.0101 O.2     1  UNL1       -0.4698
     24 C          -0.4891    1.5543    1.6098 C.ar    1  UNL1        0.1000
     25 C          -0.1612    0.5876    0.6913 C.ar    1  UNL1        0.0288
     26 C          -1.0225   -0.3460    0.0346 C.ar    1  UNL1        0.0041
     27 C          -2.4442   -0.4521   -0.0688 C.ar    1  UNL1        0.0162
     28 C          -3.4653    0.5747    0.2378 C.ar    1  UNL1       -0.0120
     29 C          -3.3987    1.9123    0.3530 C.2     1  UNL1       -0.0719
     30 H          -4.8212    2.9493    1.5980 H       1  UNL1        0.0350
     31 H          -5.0333    3.2143   -0.1591 H       1  UNL1        0.0350
     32 H          -6.7184    1.2928    0.5715 H       1  UNL1        0.0581
     33 H          -6.3665   -1.3866   -0.0086 H       1  UNL1        0.0624
     34 H          -4.6746   -3.0165   -0.7907 H       1  UNL1        0.0639
     35 H          -0.3059   -3.2517   -1.6070 H       1  UNL1        0.0836
     36 H           1.7554   -2.1137   -1.1809 H       1  UNL1        0.0630
     37 H           3.8665   -0.4305    2.0238 H       1  UNL1        0.0624
     38 H           6.3036   -0.4155    1.9507 H       1  UNL1        0.0618
     39 H           7.5760   -0.3068   -0.2030 H       1  UNL1        0.0640
     40 H           2.6555    2.0876    1.6403 H       1  UNL1        0.1036
     41 H          -1.4001    1.8773    2.0903 H       1  UNL1        0.1036
     42 H          -2.5255    2.5331    0.2353 H       1  UNL1        0.0581
@<TRIPOS>BOND
     1     1     2    1
     2     2     3    2
     3     3     4   ar
     4     4     5   ar
     5     5     6   ar
     6     6     7   ar
     7     7     8   ar
     8     8     9   ar
     9     9    10   ar
    10    10    11   ar
    11    11    12    1
    12    12    13   ar
    13    13    14   ar
    14    14    15   ar
    15    15    16   ar
    16    16    17   ar
    17    17    18   ar
    18    18    19   ar
    19    19    20   ar
    20    11    21   ar
    21    21    22   ar
    22    22    23   ar
    23    23    24   ar
    24    24    25   ar
    25    25    26   ar
    26    26    27   ar
    27    27    28   ar
    28    28    29    2
    29    29     1    1
    30    28     3   ar
    31    27     6   ar
    32    26     9   ar
    33    20    12   ar
    34    25    21   ar
    35    20    16   ar
    36     1    30    1
    37     1    31    1
    38     2    32    1
    39     4    33    1
    40     5    34    1
    41     8    35    1
    42    10    36    1
    43    13    37    1
    44    14    38    1
    45    15    39    1
    46    22    40    1
    47    24    41    1
    48    29    42    1
