@<TRIPOS>MOLECULE
*****
 38 43 0 0 0
SMALL
GASTEIGER

@<TRIPOS>ATOM
      1 C          -2.6554   -3.1081    0.6867 C.3     1  UNL1       -0.0148
      2 C          -4.0266   -2.5467    0.4303 C.2     1  UNL1       -0.0725
      3 C          -3.9172   -1.2684    0.0450 C.ar    1  UNL1       -0.0210
      4 C          -4.9566   -0.3339   -0.3160 C.ar    1  UNL1       -0.0523
      5 C          -4.6170    0.9164   -0.6890 C.ar    1  UNL1       -0.0350
      6 C          -3.2030    1.3642   -0.7352 C.ar    1  UNL1        0.0751
      7 N          -3.0069    2.6468   -1.1291 N.ar    1  UNL1       -0.2541
      8 C          -1.7403    3.1317   -1.1927 C.ar    1  UNL1        0.0390
      9 C          -0.6526    2.3236   -0.8501 C.ar    1  UNL1        0.0395
     10 C           0.7579    2.4877   -0.7987 C.ar    1  UNL1       -0.0066
     11 C           1.2861    1.2919   -0.3538 C.ar    1  UNL1        0.1370
     12 O           0.2791    0.3945   -0.1500 O.2     1  UNL1       -0.4541
     13 C          -0.8988    1.0145   -0.4486 C.ar    1  UNL1        0.1468
     14 C          -2.1734    0.4764   -0.3800 C.ar    1  UNL1        0.0506
     15 C          -2.5082   -0.8856    0.0188 C.ar    1  UNL1       -0.0091
     16 C          -1.7605   -1.9386    0.3827 C.2     1  UNL1       -0.0718
     17 C           2.6321    0.8259   -0.1144 C.ar    1  UNL1        0.0280
     18 C           3.7789    1.3161   -0.7940 C.ar    1  UNL1       -0.0504
     19 C           5.1248    0.8549   -0.5573 C.ar    1  UNL1       -0.0604
     20 C           5.4719   -0.1380    0.3869 C.ar    1  UNL1       -0.0510
     21 C           4.3379   -0.5923    1.0454 C.ar    1  UNL1        0.0205
     22 C           4.2894   -1.5363    2.0352 C.ar    1  UNL1        0.0994
     23 O           2.9952   -1.6953    2.4478 O.2     1  UNL1       -0.4698
     24 C           2.2185   -0.8433    1.7096 C.ar    1  UNL1        0.1001
     25 C           2.9984   -0.1487    0.8194 C.ar    1  UNL1        0.0305
     26 H          -2.5480   -3.4255    1.7280 H       1  UNL1        0.0350
     27 H          -2.4437   -3.9489    0.0197 H       1  UNL1        0.0350
     28 H          -4.9439   -3.1042    0.5399 H       1  UNL1        0.0581
     29 H          -5.9929   -0.6507   -0.2854 H       1  UNL1        0.0624
     30 H          -5.3657    1.6484   -0.9697 H       1  UNL1        0.0639
     31 H          -1.6360    4.1614   -1.5159 H       1  UNL1        0.0837
     32 H           1.3202    3.3770   -1.0458 H       1  UNL1        0.0662
     33 H          -0.6841   -1.9694    0.4477 H       1  UNL1        0.0581
     34 H           3.6475    2.0838   -1.5578 H       1  UNL1        0.0625
     35 H           5.9249    1.3034   -1.1485 H       1  UNL1        0.0618
     36 H           6.4844   -0.4742    0.5583 H       1  UNL1        0.0625
     37 H           5.0191   -2.1501    2.5436 H       1  UNL1        0.1035
     38 H           1.1644   -0.8601    1.9476 H       1  UNL1        0.1036
@<TRIPOS>BOND
     1     1     2    1
     2     2     3    2
     3     3     4   ar
     4     4     5   ar
     5     5     6   ar
     6     6     7   ar
     7     7     8   ar
     8     8     9   ar
     9     9    10   ar
    10    10    11   ar
    11    11    12   ar
    12    12    13   ar
    13    13    14   ar
    14    14    15   ar
    15    15    16    2
    16    11    17    1
    17    17    18   ar
    18    18    19   ar
    19    19    20   ar
    20    20    21   ar
    21    21    22   ar
    22    22    23   ar
    23    23    24   ar
    24    24    25   ar
    25    16     1    1
    26    25    17   ar
    27    15     3   ar
    28    25    21   ar
    29    14     6   ar
    30    13     9   ar
    31     1    26    1
    32     1    27    1
    33     2    28    1
    34     4    29    1
    35     5    30    1
    36     8    31    1
    37    10    32    1
    38    16    33    1
    39    18    34    1
    40    19    35    1
    41    20    36    1
    42    22    37    1
    43    24    38    1
