@<TRIPOS>MOLECULE
*****
 40 46 0 0 0
SMALL
GASTEIGER

@<TRIPOS>ATOM
      1 SI          0.5816   -2.1948    2.9950 Si      1  UNL1        0.0000
      2 C          -0.8456   -1.7893    1.8751 C.2     1  UNL1        0.0000
      3 C          -0.4627   -1.0132    0.8384 C.ar    1  UNL1        0.0000
      4 C          -1.3885   -0.3866   -0.1072 C.ar    1  UNL1        0.0000
      5 C          -0.8868    0.5534   -0.9364 C.ar    1  UNL1        0.0000
      6 C           0.5545    0.8760   -1.0056 C.ar    1  UNL1        0.0000
      7 C           0.9790    1.8723   -1.8687 C.ar    1  UNL1        0.0000
      8 N           2.2707    2.1860   -2.0969 N.ar    1  UNL1        0.0000
      9 C           3.2193    1.4373   -1.5346 C.ar    1  UNL1        0.0000
     10 C           4.5237    1.7921   -1.9048 C.ar    1  UNL1        0.0000
     11 C           5.6885    1.1192   -1.5156 C.ar    1  UNL1        0.0000
     12 C           5.4762   -0.0248   -0.7313 C.ar    1  UNL1        0.0000
     13 N           6.4457   -0.8486   -0.3072 N.ar    1  UNL1        0.0000
     14 S           5.6938   -2.0801    0.5007 S.2     1  UNL1        0.0000
     15 N           4.1171   -1.6067    0.3655 N.ar    1  UNL1        0.0000
     16 C           4.0858   -0.4357   -0.2966 C.ar    1  UNL1        0.0000
     17 C           2.9150    0.3556   -0.6481 C.ar    1  UNL1        0.0000
     18 C           1.5383    0.1613   -0.2876 C.ar    1  UNL1        0.0000
     19 C           0.9963   -0.7103    0.7947 C.ar    1  UNL1        0.0000
     20 C           1.6543   -1.1466    1.8888 C.2     1  UNL1        0.0000
     21 C          -2.7962   -0.6476   -0.1988 C.ar    1  UNL1        0.0000
     22 S          -3.3482   -2.2043   -0.7341 S.2     1  UNL1        0.0000
     23 C          -5.0009   -1.7755   -0.5902 C.ar    1  UNL1        0.0000
     24 C          -5.1452   -0.4834   -0.1603 C.ar    1  UNL1        0.0000
     25 N          -6.3610    0.1010    0.0284 N.ar    1  UNL1        0.0000
     26 C          -6.2147    1.3856    0.4547 C.ar    1  UNL1        0.0000
     27 C          -4.9901    2.0298    0.6691 C.ar    1  UNL1        0.0000
     28 N          -3.7643    1.4679    0.4838 N.ar    1  UNL1        0.0000
     29 C          -3.8786    0.1732    0.0609 C.ar    1  UNL1        0.0000
     30 H           0.9433   -3.6324    2.9598 H       1  UNL1        0.0000
     31 H           0.4221   -1.6109    4.3489 H       1  UNL1        0.0000
     32 H          -1.8475   -2.0925    2.1337 H       1  UNL1        0.0000
     33 H          -1.5360    1.0796   -1.6324 H       1  UNL1        0.0000
     34 H           0.2693    2.4745   -2.4310 H       1  UNL1        0.0000
     35 H           4.6413    2.6555   -2.5638 H       1  UNL1        0.0000
     36 H           6.6752    1.4285   -1.8365 H       1  UNL1        0.0000
     37 H           2.6726   -0.9582    2.1790 H       1  UNL1        0.0000
     38 H          -5.7802   -2.4841   -0.8297 H       1  UNL1        0.0000
     39 H          -7.1467    1.9160    0.6298 H       1  UNL1        0.0000
     40 H          -4.9704    3.0609    1.0114 H       1  UNL1        0.0000
@<TRIPOS>BOND
     1     1     2    1
     2     2     3    2
     3     3     4   ar
     4     4     5   ar
     5     5     6   ar
     6     6     7   ar
     7     7     8   ar
     8     8     9   ar
     9     9    10   ar
    10    10    11   ar
    11    11    12   ar
    12    12    13   ar
    13    13    14   ar
    14    14    15   ar
    15    15    16   ar
    16    16    17   ar
    17    17    18   ar
    18    18    19   ar
    19    19    20    2
    20     4    21    1
    21    21    22   ar
    22    22    23   ar
    23    23    24   ar
    24    24    25   ar
    25    25    26   ar
    26    26    27   ar
    27    27    28   ar
    28    28    29   ar
    29    20     1    1
    30    29    21   ar
    31    19     3   ar
    32    29    24   ar
    33    18     6   ar
    34    17     9   ar
    35    16    12   ar
    36     1    30    1
    37     1    31    1
    38     2    32    1
    39     5    33    1
    40     7    34    1
    41    10    35    1
    42    11    36    1
    43    20    37    1
    44    23    38    1
    45    26    39    1
    46    27    40    1
