@<TRIPOS>MOLECULE
*****
 44 50 0 0 0
SMALL
GASTEIGER

@<TRIPOS>ATOM
      1 C          -3.6444    2.0434   -3.2758 C.3     1  UNL1        0.0000
      2 C          -5.0166    1.9916   -2.6870 C.2     1  UNL1        0.0000
      3 C          -4.9665    1.3518   -1.5115 C.ar    1  UNL1        0.0000
      4 C          -6.0721    1.0044   -0.6652 C.ar    1  UNL1        0.0000
      5 C          -5.8313    0.2622    0.4262 C.ar    1  UNL1        0.0000
      6 C          -4.4651   -0.1631    0.8050 C.ar    1  UNL1        0.0000
      7 N          -4.4414   -0.9142    1.9274 N.ar    1  UNL1        0.0000
      8 C          -3.2288   -1.2943    2.3688 C.ar    1  UNL1        0.0000
      9 C          -2.0175   -0.9355    1.7850 C.ar    1  UNL1        0.0000
     10 C          -0.8135   -1.3689    2.3780 C.ar    1  UNL1        0.0000
     11 C           0.4179   -0.9772    1.8325 C.ar    1  UNL1        0.0000
     12 C           1.7776   -1.2144    2.1722 C.ar    1  UNL1        0.0000
     13 C           2.5693   -0.5455    1.2599 C.ar    1  UNL1        0.0000
     14 N           1.7225    0.1114    0.4006 N.ar    1  UNL1        0.0000
     15 C           0.4092   -0.1530    0.7170 C.ar    1  UNL1        0.0000
     16 C          -0.7778    0.2871    0.1103 C.ar    1  UNL1        0.0000
     17 C          -2.0369   -0.1281    0.6188 C.ar    1  UNL1        0.0000
     18 C          -3.3093    0.2240    0.0721 C.ar    1  UNL1        0.0000
     19 C          -3.5875    0.9629   -1.1939 C.ar    1  UNL1        0.0000
     20 C          -2.8231    1.3252   -2.2411 C.2     1  UNL1        0.0000
     21 C           3.9941   -0.4612    1.1597 C.ar    1  UNL1        0.0000
     22 S           4.9776   -0.1934    2.5591 S.2     1  UNL1        0.0000
     23 C           6.4451   -0.1811    1.6488 C.ar    1  UNL1        0.0000
     24 C           6.1896   -0.3955    0.3220 C.ar    1  UNL1        0.0000
     25 C           7.0818   -0.4838   -0.7936 C.2     1  UNL1        0.0000
     26 C           6.4839   -0.7305   -1.9797 C.2     1  UNL1        0.0000
     27 SI          4.5919   -0.8976   -1.7800 Si      1  UNL1        0.0000
     28 C           4.8006   -0.5591    0.0632 C.ar    1  UNL1        0.0000
     29 H          -3.3036    3.0748   -3.4041 H       1  UNL1        0.0000
     30 H          -3.6082    1.5203   -4.2359 H       1  UNL1        0.0000
     31 H          -5.9040    2.3713   -3.1697 H       1  UNL1        0.0000
     32 H          -7.0770    1.3125   -0.9291 H       1  UNL1        0.0000
     33 H          -6.6343   -0.0445    1.0873 H       1  UNL1        0.0000
     34 H          -3.2604   -1.9105    3.2648 H       1  UNL1        0.0000
     35 H          -0.8229   -1.9954    3.2663 H       1  UNL1        0.0000
     36 H           2.1378   -1.8172    2.9959 H       1  UNL1        0.0000
     37 H           2.0200    0.7223   -0.3463 H       1  UNL1        0.0000
     38 H          -0.7011    0.9732   -0.7195 H       1  UNL1        0.0000
     39 H          -1.7775    1.1333   -2.4011 H       1  UNL1        0.0000
     40 H           7.3925   -0.0273    2.1458 H       1  UNL1        0.0000
     41 H           8.1533   -0.3613   -0.6832 H       1  UNL1        0.0000
     42 H           6.9536   -0.8388   -2.9440 H       1  UNL1        0.0000
     43 H           4.1396   -2.2716   -2.1069 H       1  UNL1        0.0000
     44 H           3.8630    0.1913   -2.4807 H       1  UNL1        0.0000
@<TRIPOS>BOND
     1     1     2    1
     2     2     3    2
     3     3     4   ar
     4     4     5   ar
     5     5     6   ar
     6     6     7   ar
     7     7     8   ar
     8     8     9   ar
     9     9    10   ar
    10    10    11   ar
    11    11    12   ar
    12    12    13   ar
    13    13    14   ar
    14    14    15   ar
    15    15    16   ar
    16    16    17   ar
    17    17    18   ar
    18    18    19   ar
    19    19    20    2
    20    13    21    1
    21    21    22   ar
    22    22    23   ar
    23    23    24   ar
    24    24    25    1
    25    25    26    2
    26    26    27    1
    27    27    28    1
    28    20     1    1
    29    28    21   ar
    30    19     3   ar
    31    28    24   ar
    32    18     6   ar
    33    17     9   ar
    34    15    11   ar
    35     1    29    1
    36     1    30    1
    37     2    31    1
    38     4    32    1
    39     5    33    1
    40     8    34    1
    41    10    35    1
    42    12    36    1
    43    14    37    1
    44    16    38    1
    45    20    39    1
    46    23    40    1
    47    25    41    1
    48    26    42    1
    49    27    43    1
    50    27    44    1
