@<TRIPOS>MOLECULE
*****
 46 53 0 0 0
SMALL
GASTEIGER

@<TRIPOS>ATOM
      1 C          -6.3887    0.3615   -0.7499 C.3     1  UNL1       -0.0148
      2 C          -6.2889    1.2488    0.4559 C.2     1  UNL1       -0.0725
      3 C          -5.0094    1.3183    0.8480 C.ar    1  UNL1       -0.0210
      4 C          -4.4458    2.1167    1.9184 C.ar    1  UNL1       -0.0508
      5 C          -3.1110    2.1149    2.1062 C.ar    1  UNL1       -0.0181
      6 C          -2.3082    1.2879    1.2554 C.ar    1  UNL1        0.1369
      7 O          -0.9458    1.2063    1.3138 O.2     1  UNL1       -0.4545
      8 C          -0.5300    0.2980    0.3827 C.ar    1  UNL1        0.1409
      9 C           0.8315   -0.0382    0.1157 C.ar    1  UNL1        0.0076
     10 C           2.1162    0.4841    0.6827 C.3     1  UNL1        0.0028
     11 C           3.1648   -0.3123   -0.0793 C.2     1  UNL1       -0.0251
     12 C           2.5277   -1.1416   -0.9309 C.2     1  UNL1       -0.0490
     13 C           1.0950   -0.9804   -0.8192 C.ar    1  UNL1       -0.0103
     14 C          -0.0019   -1.6412   -1.4956 C.ar    1  UNL1       -0.0136
     15 C           0.0355   -2.6465   -2.3824 C.2     1  UNL1       -0.0719
     16 C          -1.3649   -3.0559   -2.7294 C.3     1  UNL1       -0.0148
     17 C          -2.1990   -2.1274   -1.8914 C.2     1  UNL1       -0.0718
     18 C          -1.4066   -1.2905   -1.2095 C.ar    1  UNL1       -0.0099
     19 C          -1.6515   -0.2492   -0.2610 C.ar    1  UNL1        0.0362
     20 C          -2.7751    0.4444    0.2351 C.ar    1  UNL1        0.0359
     21 C          -4.1775    0.4757   -0.0265 C.ar    1  UNL1       -0.0104
     22 C          -4.9606   -0.0525   -0.9755 C.2     1  UNL1       -0.0718
     23 C           4.5770   -0.2471    0.0348 C.ar    1  UNL1        0.0585
     24 S           5.7434   -1.1802   -0.8596 S.2     1  UNL1       -0.0926
     25 C           7.1123   -0.4465   -0.0774 C.ar    1  UNL1       -0.0129
     26 C           6.6394    0.4538    0.8081 C.ar    1  UNL1        0.0278
     27 C           7.1022    1.3815    1.7533 C.ar    1  UNL1       -0.0156
     28 C           5.9434    1.9568    2.2896 C.ar    1  UNL1        0.0932
     29 O           4.7660    1.4652    1.7566 O.2     1  UNL1       -0.4618
     30 C           5.2707    0.5612    0.8684 C.ar    1  UNL1        0.1492
     31 H          -7.0242   -0.5066   -0.5518 H       1  UNL1        0.0350
     32 H          -6.7764    0.9137   -1.6111 H       1  UNL1        0.0350
     33 H          -7.1219    1.7719    0.8996 H       1  UNL1        0.0581
     34 H          -5.1008    2.7215    2.5346 H       1  UNL1        0.0625
     35 H          -2.6333    2.7051    2.8785 H       1  UNL1        0.0655
     36 H           2.1770    0.2884    1.7584 H       1  UNL1        0.0363
     37 H           2.2204    1.5573    0.4918 H       1  UNL1        0.0363
     38 H           2.9762   -1.8440   -1.6172 H       1  UNL1        0.0627
     39 H           0.9223   -3.1259   -2.7669 H       1  UNL1        0.0581
     40 H          -1.5670   -2.9143   -3.7950 H       1  UNL1        0.0350
     41 H          -1.5466   -4.0993   -2.4551 H       1  UNL1        0.0350
     42 H          -3.2701   -2.1904   -1.8464 H       1  UNL1        0.0581
     43 H          -4.6549   -0.6527   -1.8119 H       1  UNL1        0.0581
     44 H           8.1248   -0.7298   -0.3264 H       1  UNL1        0.0701
     45 H           8.1184    1.6225    2.0296 H       1  UNL1        0.0655
     46 H           5.7961    2.7170    3.0459 H       1  UNL1        0.1030
@<TRIPOS>BOND
     1     1     2    1
     2     2     3    2
     3     3     4   ar
     4     4     5   ar
     5     5     6   ar
     6     6     7   ar
     7     7     8   ar
     8     8     9   ar
     9     9    10    1
    10    10    11    1
    11    11    12    2
    12    12    13    1
    13    13    14   ar
    14    14    15    2
    15    15    16    1
    16    16    17    1
    17    17    18    2
    18    18    19   ar
    19    19    20   ar
    20    20    21   ar
    21    21    22    2
    22    11    23    1
    23    23    24   ar
    24    24    25   ar
    25    25    26   ar
    26    26    27   ar
    27    27    28   ar
    28    28    29   ar
    29    29    30   ar
    30    22     1    1
    31    30    23   ar
    32    21     3   ar
    33    30    26   ar
    34    20     6   ar
    35    19     8   ar
    36    13     9   ar
    37    18    14   ar
    38     1    31    1
    39     1    32    1
    40     2    33    1
    41     4    34    1
    42     5    35    1
    43    10    36    1
    44    10    37    1
    45    12    38    1
    46    15    39    1
    47    16    40    1
    48    16    41    1
    49    17    42    1
    50    22    43    1
    51    25    44    1
    52    27    45    1
    53    28    46    1
