@<TRIPOS>MOLECULE
*****
 47 54 0 0 0
SMALL
GASTEIGER

@<TRIPOS>ATOM
      1 C          -6.4788   -0.5812   -0.8375 C.3     1  UNL1       -0.0148
      2 C          -6.7607    0.5102    0.1524 C.2     1  UNL1       -0.0725
      3 C          -5.6032    0.9474    0.6671 C.ar    1  UNL1       -0.0212
      4 C          -5.3927    2.0621    1.5647 C.ar    1  UNL1       -0.0532
      5 C          -4.1317    2.4334    1.8620 C.ar    1  UNL1       -0.0468
      6 C          -3.0488    1.6635    1.3167 C.ar    1  UNL1        0.0211
      7 S          -1.4232    2.1115    1.5632 S.2     1  UNL1       -0.0875
      8 C          -0.8436    0.7547    0.7060 C.ar    1  UNL1        0.0302
      9 C          -1.8803   -0.0987    0.3227 C.ar    1  UNL1        0.0055
     10 C          -3.1562    0.5149    0.5256 C.ar    1  UNL1        0.0049
     11 C          -4.4871    0.1675    0.1144 C.ar    1  UNL1       -0.0130
     12 C          -4.9793   -0.6798   -0.8001 C.2     1  UNL1       -0.0719
     13 C          -1.5013   -1.3725   -0.2152 C.ar    1  UNL1       -0.0124
     14 C          -2.1992   -2.5016   -0.4080 C.2     1  UNL1       -0.0719
     15 C          -1.3055   -3.5809   -0.9398 C.3     1  UNL1       -0.0148
     16 C           0.0357   -2.9132   -0.9451 C.2     1  UNL1       -0.0719
     17 C          -0.0857   -1.6499   -0.5019 C.ar    1  UNL1       -0.0133
     18 C           0.9793   -0.6717   -0.2053 C.ar    1  UNL1       -0.0059
     19 C           2.3273   -0.8940   -0.5082 C.ar    1  UNL1       -0.0268
     20 C           3.2709    0.0683   -0.1613 C.ar    1  UNL1        0.0801
     21 N           2.9209    1.2228    0.4648 N.ar    1  UNL1       -0.2537
     22 C           1.6075    1.4215    0.7436 C.ar    1  UNL1        0.0371
     23 C           0.5944    0.5229    0.4390 C.ar    1  UNL1        0.0152
     24 C           4.7050   -0.0755   -0.4338 C.ar    1  UNL1        0.0614
     25 S           5.4293   -1.4504   -1.2210 S.2     1  UNL1       -0.0924
     26 C           7.0424   -0.8115   -1.1283 C.ar    1  UNL1       -0.0145
     27 C           6.9671    0.3877   -0.5196 C.ar    1  UNL1        0.0073
     28 C           7.7824    1.4661   -0.0959 C.ar    1  UNL1       -0.0361
     29 C           6.9292    2.4206    0.4998 C.ar    1  UNL1        0.0028
     30 N           5.6019    2.0034    0.4776 N.ar    1  UNL1       -0.3597
     31 C           5.7061    0.7903   -0.1422 C.ar    1  UNL1        0.0629
     32 H          -6.8269   -0.3017   -1.8363 H       1  UNL1        0.0350
     33 H          -6.9447   -1.5234   -0.5346 H       1  UNL1        0.0350
     34 H          -7.7420    0.9092    0.3577 H       1  UNL1        0.0581
     35 H          -6.2472    2.6053    1.9513 H       1  UNL1        0.0624
     36 H          -3.9346    3.2821    2.5085 H       1  UNL1        0.0629
     37 H          -4.4167   -1.3162   -1.4615 H       1  UNL1        0.0581
     38 H          -3.2382   -2.6646   -0.1770 H       1  UNL1        0.0581
     39 H          -1.6045   -3.8842   -1.9472 H       1  UNL1        0.0350
     40 H          -1.3057   -4.4511   -0.2768 H       1  UNL1        0.0350
     41 H           0.9489   -3.4248   -1.2068 H       1  UNL1        0.0581
     42 H           2.6282   -1.8080   -1.0055 H       1  UNL1        0.0645
     43 H           1.4048    2.3705    1.2316 H       1  UNL1        0.0836
     44 H           7.8925   -1.3525   -1.5173 H       1  UNL1        0.0700
     45 H           8.8549    1.5646   -0.1970 H       1  UNL1        0.0639
     46 H           7.1686    3.3781    0.9439 H       1  UNL1        0.0807
     47 H           4.7405    2.4289    0.8105 H       1  UNL1        0.1654
@<TRIPOS>BOND
     1     1     2    1
     2     2     3    2
     3     3     4   ar
     4     4     5   ar
     5     5     6   ar
     6     6     7   ar
     7     7     8   ar
     8     8     9   ar
     9     9    10   ar
    10    10    11   ar
    11    11    12    2
    12     9    13   ar
    13    13    14    2
    14    14    15    1
    15    15    16    1
    16    16    17    2
    17    17    18   ar
    18    18    19   ar
    19    19    20   ar
    20    20    21   ar
    21    21    22   ar
    22    22    23   ar
    23    20    24    1
    24    24    25   ar
    25    25    26   ar
    26    26    27   ar
    27    27    28   ar
    28    28    29   ar
    29    29    30   ar
    30    30    31   ar
    31    12     1    1
    32    17    13   ar
    33    23    18   ar
    34    31    24   ar
    35    11     3   ar
    36    31    27   ar
    37    10     6   ar
    38    23     8   ar
    39     1    32    1
    40     1    33    1
    41     2    34    1
    42     4    35    1
    43     5    36    1
    44    12    37    1
    45    14    38    1
    46    15    39    1
    47    15    40    1
    48    16    41    1
    49    19    42    1
    50    22    43    1
    51    26    44    1
    52    28    45    1
    53    29    46    1
    54    30    47    1
