@<TRIPOS>MOLECULE
*****
 42 48 0 0 0
SMALL
GASTEIGER

@<TRIPOS>ATOM
      1 C          -6.1214    1.5092   -0.6214 C.3     1  UNL1       -0.0148
      2 C          -6.5294    0.2041   -0.0040 C.2     1  UNL1       -0.0725
      3 C          -5.4324   -0.5040    0.2969 C.ar    1  UNL1       -0.0212
      4 C          -5.3524   -1.8146    0.9036 C.ar    1  UNL1       -0.0532
      5 C          -4.1402   -2.3605    1.1256 C.ar    1  UNL1       -0.0468
      6 C          -2.9761   -1.6100    0.7469 C.ar    1  UNL1        0.0211
      7 S          -1.4138   -2.2063    0.9841 S.2     1  UNL1       -0.0876
      8 C          -0.6355   -0.8107    0.3135 C.ar    1  UNL1        0.0288
      9 C          -1.6136    0.1250   -0.0932 C.ar    1  UNL1       -0.0019
     10 C          -1.1608    1.3381   -0.6660 C.ar    1  UNL1       -0.0523
     11 C           0.1960    1.6168   -0.8278 C.ar    1  UNL1       -0.0534
     12 C           1.1683    0.7118   -0.4340 C.ar    1  UNL1       -0.0155
     13 C           2.5365    1.0790   -0.6303 C.ar    1  UNL1       -0.0427
     14 C           3.6497    0.2844   -0.2803 C.ar    1  UNL1        0.0260
     15 C           5.0141    0.7305   -0.4673 C.ar    1  UNL1        0.1354
     16 C           6.1806    0.6580    0.2693 C.ar    1  UNL1       -0.0159
     17 C           7.1815    1.3188   -0.4843 C.ar    1  UNL1       -0.0233
     18 C           6.5646    1.7650   -1.6279 C.ar    1  UNL1        0.0926
     19 O           5.2511    1.4230   -1.6227 O.2     1  UNL1       -0.4629
     20 C           3.2665   -0.9470    0.2723 C.ar    1  UNL1        0.0004
     21 C           4.1604   -1.9320    0.6292 C.ar    1  UNL1       -0.0159
     22 S           3.3798   -3.3082    1.2728 S.2     1  UNL1       -0.1038
     23 C           1.8290   -2.6126    1.0390 C.ar    1  UNL1       -0.0160
     24 C           1.8745   -1.3521    0.4853 C.ar    1  UNL1       -0.0014
     25 C           0.7575   -0.5368    0.1493 C.ar    1  UNL1        0.0047
     26 C          -2.9527   -0.3512    0.1617 C.ar    1  UNL1        0.0043
     27 C          -4.2331    0.2535   -0.0861 C.ar    1  UNL1       -0.0130
     28 C          -4.6197    1.4211   -0.6192 C.2     1  UNL1       -0.0719
     29 H          -6.5078    1.6006   -1.6408 H       1  UNL1        0.0350
     30 H          -6.4659    2.3548   -0.0189 H       1  UNL1        0.0350
     31 H          -7.5512   -0.0995    0.1632 H       1  UNL1        0.0581
     32 H          -6.2641   -2.3368    1.1696 H       1  UNL1        0.0624
     33 H          -4.0415   -3.3415    1.5785 H       1  UNL1        0.0629
     34 H          -1.8706    2.0888   -0.9953 H       1  UNL1        0.0624
     35 H           0.4712    2.5709   -1.2750 H       1  UNL1        0.0624
     36 H           2.7504    2.0542   -1.0755 H       1  UNL1        0.0631
     37 H           6.2943    0.1970    1.2403 H       1  UNL1        0.0655
     38 H           8.2207    1.4597   -0.2227 H       1  UNL1        0.0649
     39 H           6.8998    2.3164   -2.4952 H       1  UNL1        0.1029
     40 H           5.2373   -1.9433    0.5482 H       1  UNL1        0.0700
     41 H           0.9914   -3.2208    1.3322 H       1  UNL1        0.0700
     42 H          -3.9931    2.2072   -1.0015 H       1  UNL1        0.0581
@<TRIPOS>BOND
     1     1     2    1
     2     2     3    2
     3     3     4   ar
     4     4     5   ar
     5     5     6   ar
     6     6     7   ar
     7     7     8   ar
     8     8     9   ar
     9     9    10   ar
    10    10    11   ar
    11    11    12   ar
    12    12    13   ar
    13    13    14   ar
    14    14    15    1
    15    15    16   ar
    16    16    17   ar
    17    17    18   ar
    18    18    19   ar
    19    14    20   ar
    20    20    21   ar
    21    21    22   ar
    22    22    23   ar
    23    23    24   ar
    24    24    25   ar
    25     9    26   ar
    26    26    27   ar
    27    27    28    2
    28    28     1    1
    29    27     3   ar
    30    26     6   ar
    31    25     8   ar
    32    25    12   ar
    33    19    15   ar
    34    24    20   ar
    35     1    29    1
    36     1    30    1
    37     2    31    1
    38     4    32    1
    39     5    33    1
    40    10    34    1
    41    11    35    1
    42    13    36    1
    43    16    37    1
    44    17    38    1
    45    18    39    1
    46    21    40    1
    47    23    41    1
    48    28    42    1
