@<TRIPOS>MOLECULE
*****
 39 44 0 0 0
SMALL
GASTEIGER

@<TRIPOS>ATOM
      1 C          -5.6768   -0.4764    2.0195 C.3     1  UNL1       -0.0148
      2 C          -6.2483   -0.1815    0.6637 C.2     1  UNL1       -0.0725
      3 C          -5.2470    0.0091   -0.2061 C.ar    1  UNL1       -0.0212
      4 C          -5.3326    0.3165   -1.6172 C.ar    1  UNL1       -0.0532
      5 C          -4.1959    0.4720   -2.3250 C.ar    1  UNL1       -0.0468
      6 C          -2.9420    0.3242   -1.6405 C.ar    1  UNL1        0.0211
      7 S          -1.4591    0.5011   -2.4444 S.2     1  UNL1       -0.0876
      8 C          -0.5350    0.1904   -1.0138 C.ar    1  UNL1        0.0296
      9 C          -1.3736   -0.0508    0.0882 C.ar    1  UNL1       -0.0019
     10 C          -0.7466   -0.3212    1.3319 C.ar    1  UNL1       -0.0523
     11 C           0.6466   -0.3482    1.4632 C.ar    1  UNL1       -0.0533
     12 C           1.4715   -0.1083    0.3675 C.ar    1  UNL1       -0.0133
     13 C           2.8700   -0.1315    0.4817 C.ar    1  UNL1       -0.0265
     14 C           3.6513    0.1148   -0.6431 C.ar    1  UNL1        0.0877
     15 N           3.1159    0.3783   -1.8559 N.ar    1  UNL1       -0.2529
     16 C           1.7660    0.3980   -1.9539 C.ar    1  UNL1        0.0371
     17 C           0.8930    0.1639   -0.8847 C.ar    1  UNL1        0.0146
     18 C           5.1172    0.1135   -0.6286 C.ar    1  UNL1        0.0649
     19 C           6.0108    0.3361   -1.6681 C.ar    1  UNL1       -0.0349
     20 C           7.3282    0.2307   -1.1648 C.ar    1  UNL1       -0.0438
     21 C           7.2241   -0.0545    0.1749 C.ar    1  UNL1        0.0022
     22 N           5.8912   -0.1230    0.4890 N.ar    1  UNL1       -0.3595
     23 C          -2.7615    0.0304   -0.2917 C.ar    1  UNL1        0.0043
     24 C          -3.9588   -0.1398    0.4834 C.ar    1  UNL1       -0.0130
     25 C          -4.1937   -0.4210    1.7727 C.2     1  UNL1       -0.0719
     26 H          -5.9800   -1.4682    2.3676 H       1  UNL1        0.0350
     27 H          -5.9819    0.2800    2.7486 H       1  UNL1        0.0350
     28 H          -7.3035   -0.1345    0.4428 H       1  UNL1        0.0581
     29 H          -6.3059    0.4171   -2.0834 H       1  UNL1        0.0624
     30 H          -4.2225    0.7030   -3.3849 H       1  UNL1        0.0629
     31 H          -1.3440   -0.5148    2.2165 H       1  UNL1        0.0624
     32 H           1.0716   -0.5611    2.4422 H       1  UNL1        0.0624
     33 H           3.3255   -0.3406    1.4418 H       1  UNL1        0.0645
     34 H           1.4037    0.6156   -2.9546 H       1  UNL1        0.0836
     35 H           5.7247    0.5534   -2.6902 H       1  UNL1        0.0639
     36 H           8.2481    0.3506   -1.7219 H       1  UNL1        0.0633
     37 H           7.9806   -0.2144    0.9313 H       1  UNL1        0.0807
     38 H           5.5370   -0.3196    1.4136 H       1  UNL1        0.1654
     39 H          -3.4682   -0.5894    2.5488 H       1  UNL1        0.0581
@<TRIPOS>BOND
     1     1     2    1
     2     2     3    2
     3     3     4   ar
     4     4     5   ar
     5     5     6   ar
     6     6     7   ar
     7     7     8   ar
     8     8     9   ar
     9     9    10   ar
    10    10    11   ar
    11    11    12   ar
    12    12    13   ar
    13    13    14   ar
    14    14    15   ar
    15    15    16   ar
    16    16    17   ar
    17    14    18    1
    18    18    19   ar
    19    19    20   ar
    20    20    21   ar
    21    21    22   ar
    22     9    23   ar
    23    23    24   ar
    24    24    25    2
    25    25     1    1
    26    24     3   ar
    27    23     6   ar
    28    17     8   ar
    29    22    18   ar
    30    17    12   ar
    31     1    26    1
    32     1    27    1
    33     2    28    1
    34     4    29    1
    35     5    30    1
    36    10    31    1
    37    11    32    1
    38    13    33    1
    39    16    34    1
    40    19    35    1
    41    20    36    1
    42    21    37    1
    43    22    38    1
    44    25    39    1
