@<TRIPOS>MOLECULE
*****
 40 46 0 0 0
SMALL
GASTEIGER

@<TRIPOS>ATOM
      1 C          -6.3402    2.0014   -0.6640 C.3     1  UNL1       -0.0148
      2 C          -6.8440    0.7241   -0.0461 C.2     1  UNL1       -0.0725
      3 C          -5.8018   -0.0586    0.2670 C.ar    1  UNL1       -0.0211
      4 C          -5.7984   -1.3737    0.8778 C.ar    1  UNL1       -0.0532
      5 C          -4.6217   -1.9946    1.1093 C.ar    1  UNL1       -0.0468
      6 C          -3.4122   -1.3160    0.7355 C.ar    1  UNL1        0.0227
      7 S          -1.8549   -1.9919    0.9742 S.2     1  UNL1       -0.0830
      8 C          -1.1254   -0.6299    0.3060 C.ar    1  UNL1        0.0815
      9 C          -1.9900    0.3570   -0.1109 C.ar    1  UNL1        0.0899
     10 N          -1.5407    1.5159   -0.6713 N.ar    1  UNL1       -0.2530
     11 C          -0.2099    1.7308   -0.8356 C.ar    1  UNL1        0.0391
     12 C           0.7778    0.8181   -0.4591 C.ar    1  UNL1        0.0400
     13 C           2.1941    0.7409   -0.4916 C.ar    1  UNL1       -0.0061
     14 C           2.5651   -0.4815    0.0588 C.ar    1  UNL1        0.1432
     15 O           1.4200   -1.1530    0.4262 O.2     1  UNL1       -0.4531
     16 C           0.3708   -0.3643    0.1102 C.ar    1  UNL1        0.1529
     17 C           3.8815   -1.0293    0.2501 C.ar    1  UNL1        0.0585
     18 S           4.0999   -2.5949    0.9703 S.2     1  UNL1       -0.0927
     19 C           5.8199   -2.5261    0.8541 C.ar    1  UNL1       -0.0162
     20 C           6.1829   -1.3456    0.2852 C.ar    1  UNL1       -0.0141
     21 C           7.4075   -0.7260   -0.0641 C.2     1  UNL1       -0.0574
     22 C           7.1513    0.4817   -0.6154 C.2     1  UNL1       -0.0791
     23 C           5.6462    0.7591   -0.6713 C.3     1  UNL1       -0.0074
     24 C           5.1070   -0.4920   -0.0607 C.ar    1  UNL1       -0.0188
     25 C          -3.3283   -0.0517    0.1439 C.ar    1  UNL1        0.0227
     26 C          -4.5606    0.6215   -0.1092 C.ar    1  UNL1       -0.0115
     27 C          -4.8495    1.8123   -0.6484 C.2     1  UNL1       -0.0719
     28 H          -6.7116    2.1158   -1.6866 H       1  UNL1        0.0350
     29 H          -6.6330    2.8690   -0.0653 H       1  UNL1        0.0350
     30 H          -7.8861    0.4933    0.1117 H       1  UNL1        0.0581
     31 H          -6.7419   -1.8386    1.1395 H       1  UNL1        0.0624
     32 H          -4.5836   -2.9786    1.5647 H       1  UNL1        0.0629
     33 H           0.0449    2.6837   -1.2909 H       1  UNL1        0.0837
     34 H           2.8670    1.4938   -0.8741 H       1  UNL1        0.0662
     35 H           6.4348   -3.3424    1.2051 H       1  UNL1        0.0699
     36 H           8.3860   -1.1586    0.0901 H       1  UNL1        0.0621
     37 H           7.8991    1.1730   -0.9748 H       1  UNL1        0.0575
     38 H           5.3952    1.6430   -0.0783 H       1  UNL1        0.0356
     39 H           5.3154    0.8829   -1.7062 H       1  UNL1        0.0356
     40 H          -4.1325    2.5302   -1.0167 H       1  UNL1        0.0581
@<TRIPOS>BOND
     1     1     2    1
     2     2     3    2
     3     3     4   ar
     4     4     5   ar
     5     5     6   ar
     6     6     7   ar
     7     7     8   ar
     8     8     9   ar
     9     9    10   ar
    10    10    11   ar
    11    11    12   ar
    12    12    13   ar
    13    13    14   ar
    14    14    15   ar
    15    15    16   ar
    16    14    17    1
    17    17    18   ar
    18    18    19   ar
    19    19    20   ar
    20    20    21    1
    21    21    22    2
    22    22    23    1
    23    23    24    1
    24     9    25   ar
    25    25    26   ar
    26    26    27    2
    27    27     1    1
    28    26     3   ar
    29    25     6   ar
    30    16     8   ar
    31    24    17   ar
    32    16    12   ar
    33    24    20   ar
    34     1    28    1
    35     1    29    1
    36     2    30    1
    37     4    31    1
    38     5    32    1
    39    11    33    1
    40    13    34    1
    41    19    35    1
    42    21    36    1
    43    22    37    1
    44    23    38    1
    45    23    39    1
    46    27    40    1
