@<TRIPOS>MOLECULE
*****
 43 49 0 0 0
SMALL
GASTEIGER

@<TRIPOS>ATOM
      1 C          -6.7717    1.2662    0.3711 C.3     1  UNL1       -0.0148
      2 C          -6.9872   -0.1684   -0.0147 C.2     1  UNL1       -0.0725
      3 C          -5.7992   -0.7619   -0.1931 C.ar    1  UNL1       -0.0212
      4 C          -5.5283   -2.1329   -0.5687 C.ar    1  UNL1       -0.0532
      5 C          -4.2491   -2.5389   -0.6975 C.ar    1  UNL1       -0.0468
      6 C          -3.2043   -1.5842   -0.4541 C.ar    1  UNL1        0.0211
      7 S          -1.5607   -1.9979   -0.5904 S.2     1  UNL1       -0.0878
      8 C          -1.0453   -0.4157   -0.1693 C.ar    1  UNL1        0.0274
      9 C           0.2591    0.0509   -0.0622 C.ar    1  UNL1       -0.0034
     10 C           1.6044   -0.5841   -0.2546 C.3     1  UNL1        0.0013
     11 C           2.5458    0.5713    0.0456 C.2     1  UNL1       -0.0332
     12 C           1.8387    1.6814    0.3562 C.2     1  UNL1       -0.0319
     13 C           0.4229    1.3706    0.2927 C.ar    1  UNL1        0.0687
     14 N          -0.5497    2.2444    0.5438 N.ar    1  UNL1       -0.2546
     15 C          -1.8232    1.7885    0.4393 C.ar    1  UNL1        0.0371
     16 C          -2.1233    0.4522    0.0817 C.ar    1  UNL1        0.0159
     17 C          -3.3696   -0.2483   -0.0896 C.ar    1  UNL1        0.0058
     18 C          -4.7234    0.2062    0.0535 C.ar    1  UNL1       -0.0129
     19 C          -5.2715    1.3846    0.3811 C.2     1  UNL1       -0.0719
     20 C           4.0160    0.5022    0.0075 C.ar    1  UNL1       -0.0133
     21 C           4.8424    1.6280    0.3102 C.ar    1  UNL1       -0.0537
     22 C           6.2741    1.6417    0.2959 C.ar    1  UNL1       -0.0606
     23 C           7.0589    0.5250   -0.0246 C.ar    1  UNL1       -0.0535
     24 C           6.2753   -0.5862   -0.3235 C.ar    1  UNL1       -0.0103
     25 C           6.8575   -1.7826   -0.6634 C.ar    1  UNL1       -0.0166
     26 S           5.6763   -2.9775   -0.9804 S.2     1  UNL1       -0.1039
     27 C           4.3861   -1.8832   -0.6600 C.ar    1  UNL1       -0.0160
     28 C           4.8181   -0.6219   -0.3149 C.ar    1  UNL1       -0.0035
     29 H          -7.1886    1.4747    1.3608 H       1  UNL1        0.0350
     30 H          -7.2140    1.9429   -0.3660 H       1  UNL1        0.0350
     31 H          -7.9556   -0.6315   -0.1260 H       1  UNL1        0.0581
     32 H          -6.3557   -2.8118   -0.7406 H       1  UNL1        0.0624
     33 H          -4.0102   -3.5596   -0.9777 H       1  UNL1        0.0629
     34 H           1.7288   -1.4031    0.4601 H       1  UNL1        0.0363
     35 H           1.7021   -0.9265   -1.2892 H       1  UNL1        0.0363
     36 H           2.1805    2.6677    0.6186 H       1  UNL1        0.0642
     37 H          -2.5870    2.5261    0.6504 H       1  UNL1        0.0836
     38 H          -4.7624    2.3014    0.6222 H       1  UNL1        0.0581
     39 H           4.3731    2.5744    0.5799 H       1  UNL1        0.0624
     40 H           6.7780    2.5751    0.5491 H       1  UNL1        0.0618
     41 H           8.1405    0.5514   -0.0310 H       1  UNL1        0.0624
     42 H           7.9081   -2.0262   -0.7445 H       1  UNL1        0.0699
     43 H           3.3934   -2.2848   -0.7590 H       1  UNL1        0.0700
@<TRIPOS>BOND
     1     1     2    1
     2     2     3    2
     3     3     4   ar
     4     4     5   ar
     5     5     6   ar
     6     6     7   ar
     7     7     8   ar
     8     8     9   ar
     9     9    10    1
    10    10    11    1
    11    11    12    2
    12    12    13    1
    13    13    14   ar
    14    14    15   ar
    15    15    16   ar
    16    16    17   ar
    17    17    18   ar
    18    18    19    2
    19    11    20    1
    20    20    21   ar
    21    21    22   ar
    22    22    23   ar
    23    23    24   ar
    24    24    25   ar
    25    25    26   ar
    26    26    27   ar
    27    27    28   ar
    28    19     1    1
    29    28    20   ar
    30    18     3   ar
    31    28    24   ar
    32    17     6   ar
    33    16     8   ar
    34    13     9   ar
    35     1    29    1
    36     1    30    1
    37     2    31    1
    38     4    32    1
    39     5    33    1
    40    10    34    1
    41    10    35    1
    42    12    36    1
    43    15    37    1
    44    19    38    1
    45    21    39    1
    46    22    40    1
    47    23    41    1
    48    25    42    1
    49    27    43    1
