@<TRIPOS>MOLECULE
*****
 49 56 0 0 0
SMALL
GASTEIGER

@<TRIPOS>ATOM
      1 C           6.0644   -1.1021   -0.3682 C.3     1  UNL1        0.0000
      2 C           6.2655   -2.5841   -0.5192 C.2     1  UNL1        0.0000
      3 C           5.0700   -3.1843   -0.5805 C.ar    1  UNL1        0.0000
      4 C           4.7455   -4.5787   -0.7371 C.ar    1  UNL1        0.0000
      5 C           3.4421   -4.9165   -0.7870 C.ar    1  UNL1        0.0000
      6 C           2.3727   -3.9176   -0.6819 C.ar    1  UNL1        0.0000
      7 C           2.6033   -2.5900   -0.5120 C.ar    1  UNL1        0.0000
      8 C           1.4804   -1.6828   -0.4217 C.2     1  UNL1        0.0000
      9 C           0.6867   -1.2709   -1.4286 C.2     1  UNL1        0.0000
     10 C          -0.3587   -0.3557   -0.9870 C.ar    1  UNL1        0.0000
     11 C          -0.4534    0.0008    0.3853 C.ar    1  UNL1        0.0000
     12 SI          0.9775   -0.9454    1.2550 Si      1  UNL1        0.0000
     13 C          -1.4622    0.9036    0.9365 C.ar    1  UNL1        0.0000
     14 C          -1.5510    1.1868    2.3482 C.ar    1  UNL1        0.0000
     15 N          -0.7651    0.6715    3.3134 N.ar    1  UNL1        0.0000
     16 S          -1.2742    1.2717    4.7616 S.2     1  UNL1        0.0000
     17 N          -2.5155    2.2319    4.2570 N.ar    1  UNL1        0.0000
     18 C          -2.5849    2.1224    2.9152 C.ar    1  UNL1        0.0000
     19 C          -3.5093    2.8150    2.0754 C.ar    1  UNL1        0.0000
     20 C          -4.4374    3.7182    2.6502 C.ar    1  UNL1        0.0000
     21 C          -5.2969    4.4505    1.8457 C.ar    1  UNL1        0.0000
     22 C          -5.2162    4.3031    0.4719 C.ar    1  UNL1        0.0000
     23 C          -4.3000    3.4006   -0.0908 C.ar    1  UNL1        0.0000
     24 C          -3.4325    2.5813    0.6752 C.ar    1  UNL1        0.0000
     25 C          -2.4802    1.5915    0.1269 C.ar    1  UNL1        0.0000
     26 C          -2.3673    1.1214   -1.2359 C.ar    1  UNL1        0.0000
     27 C          -3.2247    1.3330   -2.2950 C.ar    1  UNL1        0.0000
     28 N          -2.7227    0.6899   -3.4081 N.ar    1  UNL1        0.0000
     29 C          -1.5866   -0.0007   -3.0772 C.ar    1  UNL1        0.0000
     30 C          -1.3632    0.2192   -1.7409 C.ar    1  UNL1        0.0000
     31 C           4.0086   -2.1869   -0.4725 C.ar    1  UNL1        0.0000
     32 C           4.5665   -0.9718   -0.3546 C.2     1  UNL1        0.0000
     33 H           6.4992   -0.7391    0.5677 H       1  UNL1        0.0000
     34 H           6.4984   -0.5585   -1.2126 H       1  UNL1        0.0000
     35 H           7.2272   -3.0694   -0.5757 H       1  UNL1        0.0000
     36 H           5.5349   -5.3160   -0.8146 H       1  UNL1        0.0000
     37 H           3.1438   -5.9534   -0.9063 H       1  UNL1        0.0000
     38 H           1.3576   -4.3033   -0.7385 H       1  UNL1        0.0000
     39 H           0.7979   -1.5704   -2.4611 H       1  UNL1        0.0000
     40 H           2.0178   -0.0201    1.7799 H       1  UNL1        0.0000
     41 H           0.4807   -2.0012    2.1777 H       1  UNL1        0.0000
     42 H          -4.4761    3.8583    3.7292 H       1  UNL1        0.0000
     43 H          -6.0028    5.1482    2.2870 H       1  UNL1        0.0000
     44 H          -5.8544    4.8985   -0.1768 H       1  UNL1        0.0000
     45 H          -4.2520    3.4000   -1.1719 H       1  UNL1        0.0000
     46 H          -4.1675    1.8444   -2.3988 H       1  UNL1        0.0000
     47 H          -3.1575    0.6900   -4.3220 H       1  UNL1        0.0000
     48 H          -1.0699   -0.5995   -3.8148 H       1  UNL1        0.0000
     49 H           4.0413   -0.0333   -0.2677 H       1  UNL1        0.0000
@<TRIPOS>BOND
     1     1     2    1
     2     2     3    2
     3     3     4   ar
     4     4     5   ar
     5     5     6   ar
     6     6     7   ar
     7     7     8    1
     8     8     9    2
     9     9    10    1
    10    10    11   ar
    11    11    12    1
    12    11    13   ar
    13    13    14   ar
    14    14    15   ar
    15    15    16   ar
    16    16    17   ar
    17    17    18   ar
    18    18    19   ar
    19    19    20   ar
    20    20    21   ar
    21    21    22   ar
    22    22    23   ar
    23    23    24   ar
    24    24    25   ar
    25    25    26   ar
    26    26    27   ar
    27    27    28   ar
    28    28    29   ar
    29    29    30   ar
    30     7    31   ar
    31    31    32    2
    32    32     1    1
    33    31     3   ar
    34    12     8    1
    35    25    13   ar
    36    30    26   ar
    37    30    10   ar
    38    18    14   ar
    39    24    19   ar
    40     1    33    1
    41     1    34    1
    42     2    35    1
    43     4    36    1
    44     5    37    1
    45     6    38    1
    46     9    39    1
    47    12    40    1
    48    12    41    1
    49    20    42    1
    50    21    43    1
    51    22    44    1
    52    23    45    1
    53    27    46    1
    54    28    47    1
    55    29    48    1
    56    32    49    1
