@<TRIPOS>MOLECULE
*****
 47 53 0 0 0
SMALL
GASTEIGER

@<TRIPOS>ATOM
      1 C           5.9941   -2.2489    1.0061 C.3     1  UNL1        0.0000
      2 C           6.9980   -1.2408    0.5222 C.2     1  UNL1        0.0000
      3 C           6.3490   -0.1879    0.0089 C.ar    1  UNL1        0.0000
      4 C           6.8717    1.0107   -0.5942 C.ar    1  UNL1        0.0000
      5 C           5.9874    1.9144   -1.0590 C.ar    1  UNL1        0.0000
      6 C           4.5380    1.7114   -0.9573 C.ar    1  UNL1        0.0000
      7 C           3.9737    0.6174   -0.3831 C.ar    1  UNL1        0.0000
      8 C           2.5327    0.5157   -0.3243 C.2     1  UNL1        0.0000
      9 C           1.6886    0.2944   -1.3507 C.2     1  UNL1        0.0000
     10 C           0.2740    0.2612   -0.9589 C.ar    1  UNL1        0.0000
     11 N          -0.6607    0.0758   -1.8939 N.ar    1  UNL1        0.0000
     12 C          -1.9439    0.0566   -1.4465 C.ar    1  UNL1        0.0000
     13 C          -2.3780    0.1865   -0.1078 C.ar    1  UNL1        0.0000
     14 C          -1.3475    0.4443    0.8308 C.ar    1  UNL1        0.0000
     15 C          -1.7244    0.6967    2.1537 C.ar    1  UNL1        0.0000
     16 N          -2.9941    0.7502    2.5959 N.ar    1  UNL1        0.0000
     17 C          -3.9663    0.4794    1.6975 C.ar    1  UNL1        0.0000
     18 C          -5.3248    0.6590    2.2440 C.ar    1  UNL1        0.0000
     19 C          -6.4244    0.4401    1.5090 C.ar    1  UNL1        0.0000
     20 C          -6.2864   -0.0563    0.1613 C.ar    1  UNL1        0.0000
     21 C          -7.3360   -0.4276   -0.5953 C.2     1  UNL1        0.0000
     22 SI         -6.7754   -1.1928   -2.1948 Si      1  UNL1        0.0000
     23 C          -5.0040   -0.9255   -1.6214 C.2     1  UNL1        0.0000
     24 C          -4.9424   -0.2737   -0.4394 C.ar    1  UNL1        0.0000
     25 C          -3.7303    0.1215    0.3484 C.ar    1  UNL1        0.0000
     26 C          -0.0103    0.4579    0.3965 C.ar    1  UNL1        0.0000
     27 SI          1.6115    0.7200    1.3053 Si      1  UNL1        0.0000
     28 C           4.9067   -0.3947    0.1130 C.ar    1  UNL1        0.0000
     29 C           4.6815   -1.5893    0.6825 C.2     1  UNL1        0.0000
     30 H           6.0996   -3.1970    0.4707 H       1  UNL1        0.0000
     31 H           6.0938   -2.4191    2.0822 H       1  UNL1        0.0000
     32 H           8.0680   -1.3673    0.5755 H       1  UNL1        0.0000
     33 H           7.9417    1.1601   -0.6707 H       1  UNL1        0.0000
     34 H           6.3296    2.8320   -1.5277 H       1  UNL1        0.0000
     35 H           3.9213    2.5078   -1.3675 H       1  UNL1        0.0000
     36 H           1.9733    0.1490   -2.3834 H       1  UNL1        0.0000
     37 H          -2.6489   -0.0252   -2.2645 H       1  UNL1        0.0000
     38 H          -0.9939    0.9032    2.9313 H       1  UNL1        0.0000
     39 H          -5.3943    1.0045    3.2696 H       1  UNL1        0.0000
     40 H          -7.4133    0.5889    1.9289 H       1  UNL1        0.0000
     41 H          -8.3806   -0.3790   -0.3309 H       1  UNL1        0.0000
     42 H          -7.1176   -2.6315   -2.2939 H       1  UNL1        0.0000
     43 H          -7.1076   -0.3625   -3.3768 H       1  UNL1        0.0000
     44 H          -4.2158   -1.3183   -2.2372 H       1  UNL1        0.0000
     45 H           1.8666   -0.3762    2.2749 H       1  UNL1        0.0000
     46 H           1.7008    2.0905    1.8699 H       1  UNL1        0.0000
     47 H           3.7194   -2.0356    0.8786 H       1  UNL1        0.0000
@<TRIPOS>BOND
     1     1     2    1
     2     2     3    2
     3     3     4   ar
     4     4     5   ar
     5     5     6   ar
     6     6     7   ar
     7     7     8    1
     8     8     9    2
     9     9    10    1
    10    10    11   ar
    11    11    12   ar
    12    12    13   ar
    13    13    14   ar
    14    14    15   ar
    15    15    16   ar
    16    16    17   ar
    17    17    18   ar
    18    18    19   ar
    19    19    20   ar
    20    20    21    2
    21    21    22    1
    22    22    23    1
    23    23    24    2
    24    24    25   ar
    25    14    26   ar
    26    26    27    1
    27     7    28   ar
    28    28    29    2
    29    29     1    1
    30    28     3   ar
    31    27     8    1
    32    26    10   ar
    33    25    13   ar
    34    25    17   ar
    35    24    20   ar
    36     1    30    1
    37     1    31    1
    38     2    32    1
    39     4    33    1
    40     5    34    1
    41     6    35    1
    42     9    36    1
    43    12    37    1
    44    15    38    1
    45    18    39    1
    46    19    40    1
    47    21    41    1
    48    22    42    1
    49    22    43    1
    50    23    44    1
    51    27    45    1
    52    27    46    1
    53    29    47    1
