@<TRIPOS>MOLECULE
*****
 41 46 0 0 0
SMALL
GASTEIGER

@<TRIPOS>ATOM
      1 C           5.0016    1.7322    1.7905 C.3     1  UNL1        0.0000
      2 C           6.0020    0.7850    1.1900 C.2     1  UNL1        0.0000
      3 C           5.3664   -0.0608    0.3692 C.ar    1  UNL1        0.0000
      4 C           5.8939   -1.1266   -0.4430 C.ar    1  UNL1        0.0000
      5 C           5.0266   -1.8208   -1.2051 C.ar    1  UNL1        0.0000
      6 C           3.5897   -1.5254   -1.2181 C.ar    1  UNL1        0.0000
      7 C           3.0190   -0.5507   -0.4638 C.ar    1  UNL1        0.0000
      8 C           1.5909   -0.3411   -0.5451 C.2     1  UNL1        0.0000
      9 C           0.8978    0.1920   -1.5708 C.2     1  UNL1        0.0000
     10 C          -0.5499    0.2498   -1.3351 C.ar    1  UNL1        0.0000
     11 N          -1.3544    0.7577   -2.2741 N.ar    1  UNL1        0.0000
     12 C          -2.6708    0.7663   -1.9628 C.ar    1  UNL1        0.0000
     13 C          -3.2345    0.2927   -0.7591 C.ar    1  UNL1        0.0000
     14 C          -2.3418   -0.2339    0.1974 C.ar    1  UNL1        0.0000
     15 N          -2.7608   -0.7149    1.3811 N.ar    1  UNL1        0.0000
     16 C          -4.0834   -0.6899    1.6564 C.ar    1  UNL1        0.0000
     17 C          -5.0578   -0.1977    0.7975 C.ar    1  UNL1        0.0000
     18 C          -6.4175   -0.1989    1.1412 C.ar    1  UNL1        0.0000
     19 C          -7.3282    0.3078    0.2341 C.ar    1  UNL1        0.0000
     20 N          -6.9790    0.8043   -0.9662 N.ar    1  UNL1        0.0000
     21 C          -5.6584    0.7932   -1.2727 C.ar    1  UNL1        0.0000
     22 C          -4.6327    0.3079   -0.4422 C.ar    1  UNL1        0.0000
     23 C          -0.9979   -0.2478   -0.1089 C.ar    1  UNL1        0.0000
     24 SI          0.4510   -0.8541    0.8857 Si      1  UNL1        0.0000
     25 C           3.9361    0.2362    0.3608 C.ar    1  UNL1        0.0000
     26 C           3.7066    1.2789    1.1745 C.2     1  UNL1        0.0000
     27 H           5.2260    2.7671    1.5159 H       1  UNL1        0.0000
     28 H           4.9734    1.6368    2.8799 H       1  UNL1        0.0000
     29 H           7.0617    0.8048    1.3905 H       1  UNL1        0.0000
     30 H           6.9548   -1.3440   -0.4343 H       1  UNL1        0.0000
     31 H           5.3736   -2.6309   -1.8391 H       1  UNL1        0.0000
     32 H           2.9862   -2.1497   -1.8728 H       1  UNL1        0.0000
     33 H           1.3191    0.5574   -2.4967 H       1  UNL1        0.0000
     34 H          -3.2877    1.1872   -2.7521 H       1  UNL1        0.0000
     35 H          -4.3422   -1.0961    2.6317 H       1  UNL1        0.0000
     36 H          -6.7641   -0.5853    2.0942 H       1  UNL1        0.0000
     37 H          -8.3917    0.3280    0.4553 H       1  UNL1        0.0000
     38 H          -5.4504    1.2083   -2.2550 H       1  UNL1        0.0000
     39 H           0.7108   -0.0400    2.1033 H       1  UNL1        0.0000
     40 H           0.4636   -2.3286    1.0787 H       1  UNL1        0.0000
     41 H           2.7523    1.7433    1.3675 H       1  UNL1        0.0000
@<TRIPOS>BOND
     1     1     2    1
     2     2     3    2
     3     3     4   ar
     4     4     5   ar
     5     5     6   ar
     6     6     7   ar
     7     7     8    1
     8     8     9    2
     9     9    10    1
    10    10    11   ar
    11    11    12   ar
    12    12    13   ar
    13    13    14   ar
    14    14    15   ar
    15    15    16   ar
    16    16    17   ar
    17    17    18   ar
    18    18    19   ar
    19    19    20   ar
    20    20    21   ar
    21    21    22   ar
    22    14    23   ar
    23    23    24    1
    24     7    25   ar
    25    25    26    2
    26    26     1    1
    27    25     3   ar
    28    24     8    1
    29    23    10   ar
    30    22    13   ar
    31    22    17   ar
    32     1    27    1
    33     1    28    1
    34     2    29    1
    35     4    30    1
    36     5    31    1
    37     6    32    1
    38     9    33    1
    39    12    34    1
    40    16    35    1
    41    18    36    1
    42    19    37    1
    43    21    38    1
    44    24    39    1
    45    24    40    1
    46    26    41    1
